# MOL2 file generated by ConQuest
# Please check atom types

@<TRIPOS>MOLECULE
ABACUF01
    64    74     1
SMALL
NO_CHARGES
****
Generated from CSD

@<TRIPOS>ATOM
      1 Ba1        3.0560   -1.8088   -0.6365 Ba        1 RES1    0.0000
      2 Cu1        0.0000    0.0000    0.0000 Cu        1 RES1    0.0000
      3 C1         0.4787   -1.5870    2.2786 C.2       1 RES1    0.0000
      4 H1        -0.2527   -1.0747    2.6528 H         1 RES1    0.0000
      5 O1         0.8672   -1.3967    1.0885 O.co2     1 RES1    0.0000
      6 O2         0.9655   -2.4088    3.0582 O.co2     1 RES1    0.0000
      7 C2         2.0782    1.9649   -0.3129 C.2       1 RES1    0.0000
      8 H2         1.3112    2.4953   -0.0717 H         1 RES1    0.0000
      9 O3         3.1809    2.4934   -0.4067 O.co2     1 RES1    0.0000
     10 O4         1.8271    0.7242   -0.4465 O.co2     1 RES1    0.0000
     11 C3         0.4564    1.7040    2.6690 C.2       1 RES1    0.0000
     12 H3         0.1925    2.3792    3.2850 H         1 RES1    0.0000
     13 O5        -0.3642    1.4904    1.7539 O.co2     1 RES1    0.0000
     14 O6         1.5746    1.1740    2.8313 O.co2     1 RES1    0.0000
     15 O7         4.9801    0.0708   -1.5565 O.2       1 RES1    0.0000
     16 H4         4.7125    0.5190   -2.2030 H         1 RES1    0.0000
     17 H5         5.7059   -0.2854   -1.7403 H         1 RES1    0.0000
     18 O8         4.5303   -3.8784   -1.8647 O.2       1 RES1    0.0000
     19 H6         4.0590   -4.2939   -2.4768 H         1 RES1    0.0000
     20 H7         5.3044   -3.7852   -2.2030 H         1 RES1    0.0000
     21 C1A       -0.4787    1.5870   -2.2786 C.2       1 RES1    0.0000
     22 H1A        0.2527    1.0747   -2.6528 H         1 RES1    0.0000
     23 O1A       -0.8672    1.3967   -1.0885 O.co2     1 RES1    0.0000
     24 O2A       -0.9655    2.4088   -3.0582 O.co2     1 RES1    0.0000
     25 C2A       -2.0782   -1.9649    0.3129 C.2       1 RES1    0.0000
     26 H2A       -1.3112   -2.4953    0.0717 H         1 RES1    0.0000
     27 O3A       -3.1809   -2.4934    0.4067 O.co2     1 RES1    0.0000
     28 O4A       -1.8271   -0.7242    0.4465 O.co2     1 RES1    0.0000
     29 C3A       -0.4564   -1.7040   -2.6690 C.2       1 RES1    0.0000
     30 H3A       -0.1925   -2.3792   -3.2850 H         1 RES1    0.0000
     31 O5A        0.3642   -1.4904   -1.7539 O.co2     1 RES1    0.0000
     32 O6A       -1.5746   -1.1740   -2.8313 O.co2     1 RES1    0.0000
     33 Ba1A      -3.0560    1.8088    0.6365 Ba        1 RES1    0.0000
     34 O7A        3.8365   -0.0708    1.5565 O.2       1 RES1    0.0000
     35 H4A        4.1041   -0.5190    2.2030 H         1 RES1    0.0000
     36 H5A        3.1107    0.2854    1.7403 H         1 RES1    0.0000
     37 O8A        3.3616   -3.1893    1.8647 O.2       1 RES1    0.0000
     38 H6A        3.8329   -2.7738    2.4768 H         1 RES1    0.0000
     39 H7A        2.5875   -3.2825    2.2030 H         1 RES1    0.0000
     40 O2         3.2142   -1.7306   -3.4597 O.2       1 RES1    0.0000
     41 O3         2.2562   -4.5743   -0.4067 O.2       1 RES1    0.0000
     42 O3A        5.6357   -2.4934    0.4067 O.2       1 RES1    0.0000
     43 Ba1        0.8073   -2.4870    5.8813 Ba        1 RES1    0.0000
     44 Ba1        3.9807    5.2588   -0.6365 Ba        1 RES1    0.0000
     45 Ba1A       5.7606    1.8088    0.6365 Ba        1 RES1    0.0000
     46 Ba1A       4.8359   -5.2588    0.6365 Ba        1 RES1    0.0000
     47 Ba1A      -0.8073    2.4870   -5.8813 Ba        1 RES1    0.0000
     48 Ba1       -5.7606   -1.8088   -0.6365 Ba        1 RES1    0.0000
     49 Ba1A      -3.9807   -5.2588    0.6365 Ba        1 RES1    0.0000
     50 O2A       -3.2142    1.7306    3.4597 O.2       1 RES1    0.0000
     51 O3        -5.6357    2.4934   -0.4067 O.2       1 RES1    0.0000
     52 O3A       -2.2562    4.5743    0.4067 O.2       1 RES1    0.0000
     53 O7        -3.8365    0.0708   -1.5565 O.2       1 RES1    0.0000
     54 O7A       -4.9801   -0.0708    1.5565 O.2       1 RES1    0.0000
     55 O8        -3.3616    3.1893   -1.8647 O.2       1 RES1    0.0000
     56 O8A       -4.5303    3.8784    1.8647 O.2       1 RES1    0.0000
     57 H4        -4.1041    0.5190   -2.2030 H         1 RES1    0.0000
     58 H5        -3.1107   -0.2854   -1.7403 H         1 RES1    0.0000
     59 H4A       -4.7125   -0.5190    2.2030 H         1 RES1    0.0000
     60 H5A       -5.7059    0.2854    1.7403 H         1 RES1    0.0000
     61 H6        -3.8329    2.7738   -2.4768 H         1 RES1    0.0000
     62 H7        -2.5875    3.2825   -2.2030 H         1 RES1    0.0000
     63 H6A       -4.0590    4.2939    2.4768 H         1 RES1    0.0000
     64 H7A       -5.3044    3.7852    2.2030 H         1 RES1    0.0000
@<TRIPOS>BOND
     1    1    5 1
     2    2    5 1
     3    3    4 1
     4    5    3 un
     5    6    3 un
     6    7    8 1
     7    9    7 un
     8   10    1 1
     9   11   12 1
    10   13    2 1
    11   14   11 2
    12   15    1 1
    13   16   15 1
    14   17   15 1
    15   18    1 1
    16   19   18 1
    17   20   18 1
    18   21   22 1
    19   23    2 1
    20   24   21 un
    21   25   26 1
    22   27   25 un
    23   28    2 1
    24   29   30 1
    25   31    1 1
    26   32   29 2
    27   33   13 1
    28   34    1 1
    29   35   34 1
    30   36   34 1
    31   37    1 un
    32   38   37 1
    33   39   37 1
    34   40    1 un
    35   41    1 un
    36   42    1 un
    37   43    6 un
    38   44    9 un
    39   45    9 un
    40   46   18 un
    41   47   24 un
    42   48   27 un
    43   49   27 un
    44   50   33 un
    45   51   33 un
    46   52   33 un
    47   53   33 un
    48   54   33 1
    49   55   33 un
    50   56   33 un
    51   57   53 1
    52   58   53 1
    53   59   54 1
    54   60   54 1
    55   61   55 1
    56   62   55 1
    57   63   56 1
    58   64   56 1
    59    2   10 1
    60    2   31 1
    61    7   10 un
    62   11   13 1
    63   15   45 un
    64   21   23 un
    65   23   33 1
    66   25   28 un
    67   28   33 1
    68   29   31 1
    69   34   45 un
    70   37   46 un
    71   41   46 un
    72   42   46 un
    73   48   53 un
    74   48   54 un
@<TRIPOS>SUBSTRUCTURE
     1 RES1 1

@<TRIPOS>CRYSIN
   8.8166    7.1279    6.9281  98.0000 108.9400  82.5460   2 1

# MOL2 file generated by ConQuest
# Please check atom types

@<TRIPOS>MOLECULE
ABADUG
   315   342     3
SMALL
NO_CHARGES
****
Generated from CSD

@<TRIPOS>ATOM
      1 Zn1       -0.4773    8.4157    3.3621 Zn        1 RES1    0.0000
      2 Zn2       -3.5475   23.2950    0.3928 Zn        1 RES1    0.0000
      3 C1        -2.2179    5.9683    9.8530 C.ar      1 RES1    0.0000
      4 H1        -2.6016    6.8144    9.8131 H         1 RES1    0.0000
      5 C2        -0.8512   10.9230    2.1551 C.2       1 RES1    0.0000
      6 C3        -1.0951   12.4360    2.1051 C.ar      1 RES1    0.0000
      7 C4        -1.1294   13.1076    0.8744 C.ar      1 RES1    0.0000
      8 H2        -0.9504   12.6349    0.0931 H         1 RES1    0.0000
      9 C5        -1.4051   14.3817    0.8004 C.ar      1 RES1    0.0000
     10 H3        -1.3838   14.7871   -0.0374 H         1 RES1    0.0000
     11 C6        -1.7212   15.1474    1.8669 C.ar      1 RES1    0.0000
     12 C7        -1.7043   14.4885    3.0876 C.ar      1 RES1    0.0000
     13 H4        -1.9377   14.9674    3.8494 H         1 RES1    0.0000
     14 C8        -1.3670   13.1895    3.2276 C.ar      1 RES1    0.0000
     15 H5        -1.3176   12.8055    4.0744 H         1 RES1    0.0000
     16 C9        -2.0992   16.5843    1.7629 C.ar      1 RES1    0.0000
     17 C10       -2.2910   17.1786    0.5483 C.ar      1 RES1    0.0000
     18 H6        -2.2030   16.6796   -0.2318 H         1 RES1    0.0000
     19 C11       -2.6183   18.5403    0.4702 C.ar      1 RES1    0.0000
     20 H7        -2.7273   18.9292   -0.3674 H         1 RES1    0.0000
     21 C12       -2.7844   19.3249    1.5968 C.ar      1 RES1    0.0000
     22 C13       -2.5721   18.7083    2.8274 C.ar      1 RES1    0.0000
     23 H8        -2.6625   19.2063    3.6076 H         1 RES1    0.0000
     24 C14       -3.1443   20.7773    1.5148 C.2       1 RES1    0.0000
     25 C15        3.5966    8.5492    2.1171 C.ar      1 RES1    0.0000
     26 C16        4.2221    8.7449    0.9745 C.ar      1 RES1    0.0000
     27 H9         3.7246    8.9998    0.2316 H         1 RES1    0.0000
     28 C17        5.5869    8.5854    0.8384 C.ar      1 RES1    0.0000
     29 H10        5.9852    8.6809    0.0042 H         1 RES1    0.0000
     30 C18        6.3542    8.2867    1.9430 C.ar      1 RES1    0.0000
     31 C19        5.6650    7.9609    3.1076 C.ar      1 RES1    0.0000
     32 H11        6.1329    7.6546    3.8515 H         1 RES1    0.0000
     33 C20        4.2819    8.0875    3.1696 C.ar      1 RES1    0.0000
     34 H12        3.8311    7.8493    3.9472 H         1 RES1    0.0000
     35 C21        7.8417    8.1239    1.8629 C.ar      1 RES1    0.0000
     36 C22        8.6104    7.8244    2.9775 C.ar      1 RES1    0.0000
     37 H13        8.1861    7.6408    3.7835 H         1 RES1    0.0000
     38 C23        9.9764    7.7959    2.9195 C.ar      1 RES1    0.0000
     39 H14       10.4489    7.5933    3.6949 H         1 RES1    0.0000
     40 C24       10.6909    8.0564    1.7469 C.ar      1 RES1    0.0000
     41 C25        9.8965    8.1879    0.5423 C.ar      1 RES1    0.0000
     42 H15       10.2988    8.2483   -0.2948 H         1 RES1    0.0000
     43 C26       12.1391    8.1376    1.7009 C.2       1 RES1    0.0000
     44 C27        2.0937    8.6001    2.1631 C.2       1 RES1    0.0000
     45 C28        8.5067    8.2234    0.6803 C.ar      1 RES1    0.0000
     46 H16        7.9981    8.3236   -0.0924 H         1 RES1    0.0000
     47 C29       -1.8726    7.7695    5.8970 C.ar      1 RES1    0.0000
     48 H17       -2.5579    8.2907    5.5462 H         1 RES1    0.0000
     49 C30       -2.1084    7.1050    7.0616 C.ar      1 RES1    0.0000
     50 H18       -2.9353    7.1744    7.4812 H         1 RES1    0.0000
     51 C31       -1.1235    6.3342    7.6078 C.ar      1 RES1    0.0000
     52 C32        0.1012    6.3186    6.9575 C.ar      1 RES1    0.0000
     53 H19        0.8187    5.8531    7.3216 H         1 RES1    0.0000
     54 C33        0.2388    6.9710    5.8129 C.ar      1 RES1    0.0000
     55 H20        1.0601    6.9082    5.3811 H         1 RES1    0.0000
     56 C34       -1.3710    5.5490    8.8365 C.ar      1 RES1    0.0000
     57 C35       -0.8058    4.2795    8.9925 C.ar      1 RES1    0.0000
     58 H21       -0.2091    3.9795    8.3443 H         1 RES1    0.0000
     59 C36       -1.0925    3.4285   10.0811 C.ar      1 RES1    0.0000
     60 H22       -0.7089    2.5836   10.1487 H         1 RES1    0.0000
     61 C37       -1.9415    3.8854   11.0176 C.ar      1 RES1    0.0000
     62 C38       -2.4948    5.1359   10.9235 C.ar      1 RES1    0.0000
     63 C39       -3.4200    5.3803   12.1001 C.2       1 RES1    0.0000
     64 C40       -3.3175    4.1355   12.8825 C.ar      1 RES1    0.0000
     65 C41       -2.4585    3.2206   12.2302 C.ar      1 RES1    0.0000
     66 C42       -2.2341    1.9748   12.7364 C.ar      1 RES1    0.0000
     67 H23       -1.7138    1.3515   12.2828 H         1 RES1    0.0000
     68 C43       -2.8210    1.6797   13.9650 C.ar      1 RES1    0.0000
     69 H24       -2.6512    0.8457   14.3390 H         1 RES1    0.0000
     70 C44       -3.6386    2.5497   14.6614 C.ar      1 RES1    0.0000
     71 C45       -3.8913    3.8048   14.1031 C.ar      1 RES1    0.0000
     72 H25       -4.4401    4.4132   14.5444 H         1 RES1    0.0000
     73 C46       -4.1550    2.1639   16.0201 C.ar      1 RES1    0.0000
     74 C47       -5.4166    2.6309   16.4703 C.ar      1 RES1    0.0000
     75 H26       -5.9416    3.1833   15.9365 H         1 RES1    0.0000
     76 C48       -5.8395    2.2399   17.7209 C.ar      1 RES1    0.0000
     77 H27       -6.6503    2.5738   18.0323 H         1 RES1    0.0000
     78 C49       -3.9626    1.0086   18.0471 C.ar      1 RES1    0.0000
     79 H28       -3.4523    0.4556   18.5932 H         1 RES1    0.0000
     80 C50       -3.4599    1.3615   16.8305 C.ar      1 RES1    0.0000
     81 H29       -2.6287    1.0416   16.5630 H         1 RES1    0.0000
     82 C51       -2.2353   17.3784    2.9115 C.ar      1 RES1    0.0000
     83 H30       -2.0925   16.9974    3.7472 H         1 RES1    0.0000
     84 N1        -0.7135    7.7191    5.2246 N.ar      1 RES1    0.0000
     85 N2        -5.1627    1.4206   18.5013 N.ar      1 RES1    0.0000
     86 O1        -3.2857   21.3485    2.5693 O.co2     1 RES1    0.0000
     87 O2        -3.1993   21.2813    0.3502 O.co2     1 RES1    0.0000
     88 O3        -0.7282   10.4095    3.2857 O.co2     1 RES1    0.0000
     89 O4        -0.7811   10.3483    1.0625 O.co2     1 RES1    0.0000
     90 O5         1.5181    8.5434    3.2877 O.co2     1 RES1    0.0000
     91 O6         1.4721    8.6661    1.0885 O.co2     1 RES1    0.0000
     92 O7        12.7030    8.2327    2.7894 O.co2     1 RES1    0.0000
     93 O8        12.6857    8.0785    0.5763 O.co2     1 RES1    0.0000
     94 O9        -4.0463    6.3595   12.3542 O.2       1 RES1    0.0000
     95 Zn3        0.5248   -1.4226   17.4186 Zn        2 RES2    0.0000
     96 Zn4       15.6717   -1.4290   14.4517 Zn        2 RES2    0.0000
     97 C52        3.0805   -1.1803   16.1641 C.2       2 RES2    0.0000
     98 C53        4.5851   -1.2512   16.1161 C.ar      2 RES2    0.0000
     99 C54        5.2277   -1.5825   14.9415 C.ar      2 RES2    0.0000
    100 H31        4.7103   -1.7672   14.1916 H         2 RES2    0.0000
    101 C55        6.5485   -1.6523   14.8315 C.ar      2 RES2    0.0000
    102 H32        6.9393   -1.8102   14.0023 H         2 RES2    0.0000
    103 C56        7.3694   -1.4821   15.9921 C.ar      2 RES2    0.0000
    104 C57        6.7122   -1.2302   17.1647 C.ar      2 RES2    0.0000
    105 H33        7.1960   -1.1213   17.9523 H         2 RES2    0.0000
    106 C58        5.3023   -1.1361   17.1867 C.ar      2 RES2    0.0000
    107 H34        4.8742   -0.9881   17.9996 H         2 RES2    0.0000
    108 C59        8.8447   -1.6200   15.9600 C.ar      2 RES2    0.0000
    109 C60        9.5053   -1.5766   14.7214 C.ar      2 RES2    0.0000
    110 H35        9.0040   -1.4781   13.9441 H         2 RES2    0.0000
    111 C61       10.8480   -1.6725   14.6254 C.ar      2 RES2    0.0000
    112 H36       11.2578   -1.6426   13.7904 H         2 RES2    0.0000
    113 C62       11.6451   -1.8217   15.8060 C.ar      2 RES2    0.0000
    114 C63       10.9332   -2.0290   17.0146 C.ar      2 RES2    0.0000
    115 H37       11.3956   -2.2327   17.7949 H         2 RES2    0.0000
    116 C64        9.5599   -1.9289   17.0366 C.ar      2 RES2    0.0000
    117 H38        9.1140   -2.0839   17.8390 H         2 RES2    0.0000
    118 C65       13.1472   -1.7248   15.7659 C.2       2 RES2    0.0000
    119 C66       16.1329   -3.9315   15.6079 C.2       2 RES2    0.0000
    120 C67       16.4915   -5.3882   15.6739 C.ar      2 RES2    0.0000
    121 C68       16.2938   -6.2438   14.6054 C.ar      2 RES2    0.0000
    122 H39       15.8829   -5.9362   13.8296 H         2 RES2    0.0000
    123 C69       16.7120   -7.5595   14.6954 C.ar      2 RES2    0.0000
    124 H40       16.6485   -8.1005   13.9418 H         2 RES2    0.0000
    125 C70       17.2178   -8.1014   15.8540 C.ar      2 RES2    0.0000
    126 C71       17.3811   -7.2274   16.9325 C.ar      2 RES2    0.0000
    127 H41       17.7141   -7.5539   17.7380 H         2 RES2    0.0000
    128 C72       17.0554   -5.8937   16.8265 C.ar      2 RES2    0.0000
    129 H42       17.2180   -5.3256   17.5447 H         2 RES2    0.0000
    130 C73       17.5562   -9.5086   15.9540 C.ar      2 RES2    0.0000
    131 C74       17.9902  -10.2454   14.8975 C.ar      2 RES2    0.0000
    132 H43       18.0632   -9.8238   14.0731 H         2 RES2    0.0000
    133 C75       18.3219  -11.5529   14.9695 C.ar      2 RES2    0.0000
    134 H44       18.6743  -11.9919   14.2294 H         2 RES2    0.0000
    135 C76       18.1263  -12.2557   16.2002 C.ar      2 RES2    0.0000
    136 C77       17.7000  -11.5377   17.2907 C.ar      2 RES2    0.0000
    137 H45       17.6550  -11.9411   18.1288 H         2 RES2    0.0000
    138 C78       17.3536  -10.2698   17.1426 C.ar      2 RES2    0.0000
    139 H46       16.9504   -9.8433   17.8635 H         2 RES2    0.0000
    140 C79       18.3458  -13.7248   16.2282 C.2       2 RES2    0.0000
    141 C80       -0.8637   -1.9993   19.9421 C.ar      2 RES2    0.0000
    142 H47       -1.5305   -1.4708   19.5678 H         2 RES2    0.0000
    143 C81       -1.1114   -2.6914   21.1367 C.ar      2 RES2    0.0000
    144 H48       -1.9246   -2.5735   21.5716 H         2 RES2    0.0000
    145 C82       -0.1949   -3.5231   21.6669 C.ar      2 RES2    0.0000
    146 C83        1.0401   -3.5945   21.0386 C.ar      2 RES2    0.0000
    147 H49        1.7287   -4.1130   21.3851 H         2 RES2    0.0000
    148 C84        1.2073   -2.8677   19.8820 C.ar      2 RES2    0.0000
    149 H50        2.0253   -2.9308   19.4444 H         2 RES2    0.0000
    150 C85       -0.4499   -4.3320   22.8875 C.ar      2 RES2    0.0000
    151 C86       -1.1482   -3.8581   23.9601 C.ar      2 RES2    0.0000
    152 H51       -1.4155   -2.9669   23.9658 H         2 RES2    0.0000
    153 C87       -1.4688   -4.6586   25.0326 C.ar      2 RES2    0.0000
    154 C88       -1.1854   -6.0356   24.9626 C.ar      2 RES2    0.0000
    155 C89       -0.4965   -6.5905   23.8960 C.ar      2 RES2    0.0000
    156 H52       -0.2598   -7.4892   23.8764 H         2 RES2    0.0000
    157 C90       -0.1794   -5.7294   22.8595 C.ar      2 RES2    0.0000
    158 H53        0.2330   -6.0820   22.1045 H         2 RES2    0.0000
    159 C91       -1.6624   -6.6880   26.1972 C.ar      2 RES2    0.0000
    160 C92       -2.2665   -5.6867   27.0336 C.ar      2 RES2    0.0000
    161 C93       -2.7991   -6.0089   28.2122 C.ar      2 RES2    0.0000
    162 H54       -3.1670   -5.3405   28.7447 H         2 RES2    0.0000
    163 C94       -2.8153   -7.3234   28.6564 C.ar      2 RES2    0.0000
    164 C95       -2.2538   -8.2855   27.8460 C.ar      2 RES2    0.0000
    165 H55       -2.2764   -9.1695   28.1351 H         2 RES2    0.0000
    166 C96       -1.6575   -8.0090   26.6234 C.ar      2 RES2    0.0000
    167 H56       -1.2696   -8.6811   26.1108 H         2 RES2    0.0000
    168 C97       -3.3251   -7.6982   30.0291 C.ar      2 RES2    0.0000
    169 C98       -3.1502   -6.8540   31.1277 C.ar      2 RES2    0.0000
    170 H57       -2.7269   -6.0302   31.0478 H         2 RES2    0.0000
    171 C99       -3.6333   -7.2974   32.3283 C.ar      2 RES2    0.0000
    172 H58       -3.4895   -6.7570   33.0705 H         2 RES2    0.0000
    173 C100      -4.5700   -9.1117   31.4899 C.ar      2 RES2    0.0000
    174 H59       -5.1305   -9.8460   31.5982 H         2 RES2    0.0000
    175 C101      -4.0925   -8.8324   30.1772 C.ar      2 RES2    0.0000
    176 H60       -4.2894   -9.3874   29.4564 H         2 RES2    0.0000
    177 C102      -2.1666   -4.3798   26.2913 C.2       2 RES2    0.0000
    178 N3         0.2910   -2.0918   19.3538 N.ar      2 RES2    0.0000
    179 N4        -4.2882   -8.4319   32.5204 N.ar      2 RES2    0.0000
    180 O10        2.4794   -1.2506   15.0496 O.co2     2 RES2    0.0000
    181 O11        2.5088   -1.0959   17.2847 O.co2     2 RES2    0.0000
    182 O12       13.6617   -1.6466   14.6474 O.co2     2 RES2    0.0000
    183 O13       13.7048   -1.7622   16.8825 O.co2     2 RES2    0.0000
    184 O14       15.9014   -3.4402   14.4533 O.co2     2 RES2    0.0000
    185 O15       16.0958   -3.3197   16.6964 O.co2     2 RES2    0.0000
    186 O16       18.5402  -14.3426   15.1396 O.co2     2 RES2    0.0000
    187 O17       18.3483  -14.2777   17.3768 O.co2     2 RES2    0.0000
    188 O18       -2.5747   -3.3451   26.6774 O.2       2 RES2    0.0000
    189 Zn5        8.9811   10.1816    6.4144 Zn        3 RES3    0.0000
    190 Zn6       -6.1570   10.1754    9.3913 Zn        3 RES3    0.0000
    191 C103      -5.7908    7.6220    7.6979 C.2       3 RES3    0.0000
    192 C104      -5.5347    6.1709    7.8039 C.ar      3 RES3    0.0000
    193 C105      -5.1659    5.4834    6.6994 C.ar      3 RES3    0.0000
    194 H61       -5.0586    5.9406    5.8959 H         3 RES3    0.0000
    195 C106      -4.9340    4.0403    6.7374 C.ar      3 RES3    0.0000
    196 H62       -4.7399    3.5662    5.9610 H         3 RES3    0.0000
    197 C107      -5.0094    3.4105    7.9440 C.ar      3 RES3    0.0000
    198 C108      -5.4160    4.1023    9.0686 C.ar      3 RES3    0.0000
    199 H63       -5.5361    3.6643    9.8793 H         3 RES3    0.0000
    200 C109      -5.6500    5.5251    8.9545 C.ar      3 RES3    0.0000
    201 H64       -5.8891    6.0026    9.7157 H         3 RES3    0.0000
    202 C110      -4.6596    1.9521    8.0421 C.ar      3 RES3    0.0000
    203 C111      -4.1462    1.4030    9.1686 C.ar      3 RES3    0.0000
    204 H65       -3.9568    1.9589    9.8898 H         3 RES3    0.0000
    205 C112      -3.8950    0.0699    9.2887 C.ar      3 RES3    0.0000
    206 H66       -3.6747   -0.2907   10.1171 H         3 RES3    0.0000
    207 C113      -3.9678   -0.7276    8.2001 C.ar      3 RES3    0.0000
    208 C114      -4.4487   -0.1821    7.0556 C.ar      3 RES3    0.0000
    209 H67       -4.5265   -0.7066    6.2913 H         3 RES3    0.0000
    210 C115      -4.8202    1.1304    7.0175 C.ar      3 RES3    0.0000
    211 H68       -5.2011    1.4617    6.2367 H         3 RES3    0.0000
    212 C116      -3.5849   -2.1552    8.2482 C.2       3 RES3    0.0000
    213 C117      -3.5989   10.4727    8.0341 C.2       3 RES3    0.0000
    214 C118      -2.0913   10.5168    7.9920 C.ar      3 RES3    0.0000
    215 C119      -1.4079   10.1055    9.0686 C.ar      3 RES3    0.0000
    216 H69       -1.8638    9.8727    9.8461 H         3 RES3    0.0000
    217 C120      -0.0131   10.0255    9.0286 C.ar      3 RES3    0.0000
    218 H70        0.4530    9.7540    9.7865 H         3 RES3    0.0000
    219 C121       0.6858   10.3461    7.8700 C.ar      3 RES3    0.0000
    220 C122      -0.0674   10.7000    6.7254 C.ar      3 RES3    0.0000
    221 H71        0.3590   10.8733    5.9171 H         3 RES3    0.0000
    222 C123      -1.4564   10.7855    6.8214 C.ar      3 RES3    0.0000
    223 H72       -1.9543   11.0294    6.0758 H         3 RES3    0.0000
    224 C124       2.1435   10.1983    7.7659 C.ar      3 RES3    0.0000
    225 C125       2.9230   10.3124    8.8905 C.ar      3 RES3    0.0000
    226 H73        2.4897   10.4602    9.6984 H         3 RES3    0.0000
    227 C126       4.2771   10.2268    8.9165 C.ar      3 RES3    0.0000
    228 H74        4.7395   10.2932    9.7205 H         3 RES3    0.0000
    229 C127       4.9916   10.0297    7.6659 C.ar      3 RES3    0.0000
    230 C128       4.1570    9.8438    6.5153 C.ar      3 RES3    0.0000
    231 H75        4.5486    9.6642    5.6901 H         3 RES3    0.0000
    232 C129       2.8185    9.9226    6.6093 C.ar      3 RES3    0.0000
    233 H76        2.3194    9.7817    5.8384 H         3 RES3    0.0000
    234 C130       6.4517    9.9512    7.6379 C.2       3 RES3    0.0000
    235 C131      -7.6648   10.3781   11.8760 C.ar      3 RES3    0.0000
    236 H77       -8.0516   11.0986   11.4337 H         3 RES3    0.0000
    237 C132      -8.1853   10.0179   13.0646 C.ar      3 RES3    0.0000
    238 H78       -8.9314   10.4660   13.3906 H         3 RES3    0.0000
    239 C133      -7.6090    8.9544   13.8350 C.ar      3 RES3    0.0000
    240 C134      -6.5848    8.3250   13.2407 C.ar      3 RES3    0.0000
    241 H79       -6.1963    7.5955   13.6671 H         3 RES3    0.0000
    242 C135      -6.0850    8.7316   12.0041 C.ar      3 RES3    0.0000
    243 H80       -5.3521    8.2761   11.6580 H         3 RES3    0.0000
    244 C136      -8.2137    8.5520   15.1196 C.ar      3 RES3    0.0000
    245 C137      -8.0601    7.2869   15.6139 C.ar      3 RES3    0.0000
    246 H81       -7.5573    6.6674   15.1354 H         3 RES3    0.0000
    247 C138      -8.6311    6.9112   16.8045 C.ar      3 RES3    0.0000
    248 C139      -9.3426    7.8589   17.5428 C.ar      3 RES3    0.0000
    249 C140      -9.4880    9.1073   17.0886 C.ar      3 RES3    0.0000
    250 H82      -10.0012    9.7131   17.5729 H         3 RES3    0.0000
    251 C141      -8.8709    9.5226   15.8760 C.ar      3 RES3    0.0000
    252 H83       -8.9032   10.4092   15.5993 H         3 RES3    0.0000
    253 C142      -8.5806    5.6265   17.5589 C.2       3 RES3    0.0000
    254 C143      -9.3520    5.8777   18.8235 C.ar      3 RES3    0.0000
    255 C144      -9.8699    7.2204   18.8195 C.ar      3 RES3    0.0000
    256 C145     -10.6078    7.6797   19.8520 C.ar      3 RES3    0.0000
    257 H84      -10.9572    8.5412   19.8374 H         3 RES3    0.0000
    258 C146     -10.4235    5.5499   20.9366 C.ar      3 RES3    0.0000
    259 C147      -9.6322    5.0260   19.8980 C.ar      3 RES3    0.0000
    260 H85       -9.3105    4.1544   19.9234 H         3 RES3    0.0000
    261 C148     -10.6928    4.6805   22.0931 C.ar      3 RES3    0.0000
    262 C149     -11.9197    4.7462   22.7955 C.ar      3 RES3    0.0000
    263 H86      -12.6068    5.2715   22.4556 H         3 RES3    0.0000
    264 C150     -12.1334    4.0317   24.0061 C.ar      3 RES3    0.0000
    265 H87      -12.9535    4.0708   24.4427 H         3 RES3    0.0000
    266 C151      -9.9473    3.2493   23.8480 C.ar      3 RES3    0.0000
    267 H88       -9.2479    2.7651   24.2214 H         3 RES3    0.0000
    268 C152      -9.7163    3.8889   22.6274 C.ar      3 RES3    0.0000
    269 H89       -8.9067    3.7756   22.1831 H         3 RES3    0.0000
    270 C153     -10.8431    6.8292   20.9586 C.ar      3 RES3    0.0000
    271 H90      -11.2897    7.1573   21.7052 H         3 RES3    0.0000
    272 N5        -6.6032    9.7502   11.2777 N.ar      3 RES3    0.0000
    273 N6       -11.1028    3.2879   24.5124 N.ar      3 RES3    0.0000
    274 O19       -8.0508    4.6209   17.2567 O.2       3 RES3    0.0000
    275 O20       -4.1854   10.3827    9.1486 O.co2     3 RES3    0.0000
    276 O21       -4.2178   10.4923    6.9215 O.co2     3 RES3    0.0000
    277 O22        7.0434   10.0409    8.7324 O.co2     3 RES3    0.0000
    278 O23        6.9871    9.8476    6.4973 O.co2     3 RES3    0.0000
    279 O24       -5.9254    8.2331    8.7884 O.co2     3 RES3    0.0000
    280 O25       -5.8494    8.1741    6.5593 O.co2     3 RES3    0.0000
    281 O26       -3.3715   -2.6826    9.3527 O.co2     3 RES3    0.0000
    282 O27       -3.4911   -2.7721    7.1336 O.co2     3 RES3    0.0000
    283 Zn1       -3.5570   23.2678    3.3621 Zn        1 RES1    0.0000
    284 Zn1       14.6697    8.4157    3.3621 Zn        1 RES1    0.0000
    285 Zn2       -0.4677    8.4430    0.3928 Zn        1 RES1    0.0000
    286 Zn2       -5.6307    0.8796   20.4029 Zn        1 RES1    0.0000
    287 Zn2       14.6793    8.4430    0.3928 Zn        1 RES1    0.0000
    288 N2        -3.0795   23.8360   -1.5088 N.2       1 RES1    0.0000
    289 O1        -0.2060    6.4965    2.5693 O.2       1 RES1    0.0000
    290 O4        -3.8608   25.2003    1.0625 O.2       1 RES1    0.0000
    291 O6        -1.6077   23.5182    1.0885 O.2       1 RES1    0.0000
    292 O7        -2.4440    8.2327    2.7894 O.2       1 RES1    0.0000
    293 O8        -5.5411   22.9306    0.5763 O.2       1 RES1    0.0000
    294 Zn3       18.7516  -16.2746   17.4186 Zn        2 RES2    0.0000
    295 Zn3       15.6718   -1.4226   17.4186 Zn        2 RES2    0.0000
    296 Zn4        0.5247   -1.4290   14.4517 Zn        2 RES2    0.0000
    297 Zn4       -4.6383   -8.9924   34.4618 Zn        2 RES2    0.0000
    298 Zn4       18.7514  -16.2811   14.4517 Zn        2 RES2    0.0000
    299 N4        16.0218   -0.8686   12.5103 N.2       2 RES2    0.0000
    300 O10       17.6264   -1.2506   15.0496 O.2       2 RES2    0.0000
    301 O13       -1.4422   -1.7622   16.8825 O.2       2 RES2    0.0000
    302 O15        0.9488   -3.3197   16.6964 O.2       2 RES2    0.0000
    303 O16       15.4604    0.5095   15.1396 O.2       2 RES2    0.0000
    304 O17        0.1215    0.5743   17.3768 O.2       2 RES2    0.0000
    305 Zn5       -3.0862   -4.6704    6.4144 Zn        3 RES3    0.0000
    306 Zn5       -6.1659   10.1816    6.4144 Zn        3 RES3    0.0000
    307 Zn5      -11.3289    2.6183   26.4245 Zn        3 RES3    0.0000
    308 Zn6       -3.0772   -4.6767    9.3913 Zn        3 RES3    0.0000
    309 Zn6        8.9900   10.1754    9.3913 Zn        3 RES3    0.0000
    310 N6         9.2072   10.8512    4.5023 N.2       3 RES3    0.0000
    311 O21       10.9292   10.4923    6.9215 O.2       3 RES3    0.0000
    312 O22       -8.1036   10.0409    8.7324 O.2       3 RES3    0.0000
    313 O25        9.2976    8.1741    6.5593 O.2       3 RES3    0.0000
    314 O26       -6.4513   12.1694    9.3527 O.2       3 RES3    0.0000
    315 O27        8.5762   12.0800    7.1336 O.2       3 RES3    0.0000
@<TRIPOS>BOND
     1    1   84 1
     2    2   87 1
     3    3    4 1
     4    5    6 1
     5    6    7 ar
     6    7    8 1
     7    9    7 ar
     8   10    9 1
     9   11    9 ar
    10   12   11 ar
    11   13   12 1
    12   14    6 ar
    13   15   14 1
    14   16   11 1
    15   17   16 ar
    16   18   17 1
    17   19   17 ar
    18   20   19 1
    19   21   19 ar
    20   22   21 ar
    21   23   22 1
    22   24   21 1
    23   25   26 ar
    24   26   27 1
    25   28   26 ar
    26   29   28 1
    27   30   28 ar
    28   31   30 ar
    29   32   31 1
    30   33   25 ar
    31   34   33 1
    32   35   30 1
    33   36   35 ar
    34   37   36 1
    35   38   36 ar
    36   39   38 1
    37   40   38 ar
    38   41   40 ar
    39   42   41 1
    40   43   40 1
    41   44   25 1
    42   45   35 ar
    43   46   45 1
    44   47   48 1
    45   49   47 ar
    46   50   49 1
    47   51   49 ar
    48   52   51 ar
    49   53   52 1
    50   54   52 ar
    51   55   54 1
    52   56    3 ar
    53   57   56 ar
    54   58   57 1
    55   59   57 ar
    56   60   59 1
    57   61   59 ar
    58   62    3 ar
    59   63   62 1
    60   64   63 1
    61   65   61 1
    62   66   65 ar
    63   67   66 1
    64   68   66 ar
    65   69   68 1
    66   70   68 ar
    67   71   64 ar
    68   72   71 1
    69   73   70 1
    70   74   73 ar
    71   75   74 1
    72   76   74 ar
    73   77   76 1
    74   78   79 1
    75   80   73 ar
    76   81   80 1
    77   82   16 ar
    78   83   82 1
    79   84   47 ar
    80   85   76 ar
    81   86   24 un
    82   87   24 un
    83   88    1 1
    84   89    5 un
    85   90    1 1
    86   91   44 un
    87   92   43 un
    88   93   43 un
    89   94   63 2
    90   95  178 1
    91   96  182 1
    92   97   98 1
    93   98   99 ar
    94   99  100 1
    95  101   99 ar
    96  102  101 1
    97  103  101 ar
    98  104  103 ar
    99  105  104 1
   100  106   98 ar
   101  107  106 1
   102  108  103 1
   103  109  108 ar
   104  110  109 1
   105  111  109 ar
   106  112  111 1
   107  113  111 ar
   108  114  113 ar
   109  115  114 1
   110  116  108 ar
   111  117  116 1
   112  118  113 1
   113  119  120 1
   114  120  121 ar
   115  121  122 1
   116  123  121 ar
   117  124  123 1
   118  125  123 ar
   119  126  125 ar
   120  127  126 1
   121  128  120 ar
   122  129  128 1
   123  130  125 1
   124  131  130 ar
   125  132  131 1
   126  133  131 ar
   127  134  133 1
   128  135  133 ar
   129  136  135 ar
   130  137  136 1
   131  138  130 ar
   132  139  138 1
   133  140  135 1
   134  141  142 1
   135  143  141 ar
   136  144  143 1
   137  145  143 ar
   138  146  145 ar
   139  147  146 1
   140  148  146 ar
   141  149  148 1
   142  150  145 1
   143  151  150 ar
   144  152  151 1
   145  153  151 ar
   146  154  153 ar
   147  155  154 ar
   148  156  155 1
   149  157  150 ar
   150  158  157 1
   151  159  154 1
   152  160  159 ar
   153  161  160 ar
   154  162  161 1
   155  163  161 ar
   156  164  163 ar
   157  165  164 1
   158  166  159 ar
   159  167  166 1
   160  168  163 1
   161  169  168 ar
   162  170  169 1
   163  171  169 ar
   164  172  171 1
   165  173  174 1
   166  175  168 ar
   167  176  175 1
   168  177  153 1
   169  178  141 ar
   170  179  171 ar
   171  180   97 un
   172  181   95 1
   173  182  118 un
   174  183  118 un
   175  184   96 1
   176  185  119 un
   177  186  140 un
   178  187  140 un
   179  188  177 2
   180  189  278 1
   181  190  272 1
   182  191  192 1
   183  192  193 ar
   184  193  194 1
   185  195  193 ar
   186  196  195 1
   187  197  195 ar
   188  198  197 ar
   189  199  198 1
   190  200  192 ar
   191  201  200 1
   192  202  197 1
   193  203  202 ar
   194  204  203 1
   195  205  203 ar
   196  206  205 1
   197  207  205 ar
   198  208  207 ar
   199  209  208 1
   200  210  202 ar
   201  211  210 1
   202  212  207 1
   203  213  214 1
   204  214  215 ar
   205  215  216 1
   206  217  215 ar
   207  218  217 1
   208  219  217 ar
   209  220  219 ar
   210  221  220 1
   211  222  214 ar
   212  223  222 1
   213  224  219 1
   214  225  224 ar
   215  226  225 1
   216  227  225 ar
   217  228  227 1
   218  229  227 ar
   219  230  229 ar
   220  231  230 1
   221  232  224 ar
   222  233  232 1
   223  234  229 1
   224  235  236 1
   225  237  235 ar
   226  238  237 1
   227  239  237 ar
   228  240  239 ar
   229  241  240 1
   230  242  240 ar
   231  243  242 1
   232  244  239 1
   233  245  244 ar
   234  246  245 1
   235  247  245 ar
   236  248  247 ar
   237  249  248 ar
   238  250  249 1
   239  251  244 ar
   240  252  251 1
   241  253  247 1
   242  254  253 1
   243  255  248 1
   244  256  255 ar
   245  257  256 1
   246  258  259 ar
   247  259  254 ar
   248  260  259 1
   249  261  258 1
   250  262  261 ar
   251  263  262 1
   252  264  262 ar
   253  265  264 1
   254  266  267 1
   255  268  261 ar
   256  269  268 1
   257  270  256 ar
   258  271  270 1
   259  272  235 ar
   260  273  264 ar
   261  274  253 2
   262  275  190 1
   263  276  213 un
   264  277  234 un
   265  278  234 un
   266  279  190 1
   267  280  191 un
   268  281  212 un
   269  282  212 un
   270  283   86 un
   271  284   92 un
   272  285   89 un
   273  286   85 un
   274  287   93 un
   275  288    2 un
   276  289    1 un
   277  290    2 un
   278  291    2 un
   279  292    1 un
   280  293    2 un
   281  294  187 un
   282  295  183 un
   283  296  180 un
   284  297  179 un
   285  298  186 un
   286  299   96 un
   287  300   96 un
   288  301   95 un
   289  302   95 un
   290  303   96 un
   291  304   95 un
   292  305  282 un
   293  306  276 un
   294  307  273 un
   295  308  281 un
   296  309  277 un
   297  310  189 un
   298  311  189 un
   299  312  190 un
   300  313  189 un
   301  314  190 un
   302  315  189 un
   303    5   88 un
   304   12   14 ar
   305   22   82 ar
   306   31   33 ar
   307   41   45 ar
   308   44   90 un
   309   51   56 1
   310   54   84 ar
   311   61   62 ar
   312   64   65 ar
   313   70   71 ar
   314   78   80 ar
   315   78   85 ar
   316   91  285 un
   317   97  181 un
   318  104  106 ar
   319  114  116 ar
   320  119  184 un
   321  126  128 ar
   322  136  138 ar
   323  148  178 ar
   324  155  157 ar
   325  160  177 1
   326  164  166 ar
   327  173  175 ar
   328  173  179 ar
   329  185  295 un
   330  191  279 un
   331  198  200 ar
   332  208  210 ar
   333  213  275 un
   334  220  222 ar
   335  230  232 ar
   336  242  272 ar
   337  249  251 ar
   338  254  255 ar
   339  258  270 ar
   340  266  268 ar
   341  266  273 ar
   342  280  306 un
@<TRIPOS>SUBSTRUCTURE
     1 RES1 1
     2 RES2 95
     3 RES3 189

@<TRIPOS>CRYSIN
  15.1470   15.1680   22.0060 106.7920 103.5690 101.7150   1 1

# MOL2 file generated by ConQuest
# Please check atom types

@<TRIPOS>MOLECULE
ABAFUH
    30    36     1
SMALL
NO_CHARGES
****
Generated from CSD

@<TRIPOS>ATOM
      1 Cu1        2.3758   17.3451    1.5409 Cu        1 RES1    0.0000
      2 O1         3.4486   15.9885    0.3488 O.co2     1 RES1    0.0000
      3 O2         4.2737   17.2597    2.4373 O.co2     1 RES1    0.0000
      4 C1         2.4643   18.9562    0.2400 C.2       1 RES1    0.0000
      5 C2         1.2439   18.8788    1.0105 C.2       1 RES1    0.0000
      6 C3         4.6464   15.7310    0.6483 C.2       1 RES1    0.0000
      7 C4         5.1499   16.5118    1.9299 C.2       1 RES1    0.0000
      8 O3         5.5225   14.9828    0.1393 O.co2     1 RES1    0.0000
      9 O4         6.3456   16.2598    2.2348 O.co2     1 RES1    0.0000
     10 Cu2        7.4175   14.9041    1.0416 Cu        1 RES1    0.0000
     11 C5         7.5964   13.3135    2.4191 C.2       1 RES1    0.0000
     12 C6         8.8109   13.1362    1.6593 C.2       1 RES1    0.0000
     13 C7         6.6455   12.1785    1.9556 C.3       1 RES1    0.0000
     14 H1         7.4588   13.8504    3.3417 H         1 RES1    0.0000
     15 C8         8.5424   11.9899    0.6553 C.3       1 RES1    0.0000
     16 H2         9.7913   13.5408    1.8399 H         1 RES1    0.0000
     17 H3         5.5953   12.2817    2.2101 H         1 RES1    0.0000
     18 C9         7.0025   12.1334    0.4233 C.3       1 RES1    0.0000
     19 H4         9.1826   11.9238   -0.2170 H         1 RES1    0.0000
     20 H5         7.1146   10.3745    3.3449 H         1 RES1    0.0000
     21 H6         6.7242   13.0507   -0.0879 H         1 RES1    0.0000
     22 H7         6.5570   11.2741   -0.0713 H         1 RES1    0.0000
     23 H8         9.5140   10.3342    1.9369 H         1 RES1    0.0000
     24 O1C        1.4682   16.2555    3.0277 O.2       1 RES1    0.0000
     25 Cu1C       2.5410   14.8988   -1.1380 Cu        1 RES1    0.0000
     26 Cu2C       7.3329   17.3398    3.7205 Cu        1 RES1    0.0000
     27 O4C        8.4048   15.9841   -0.4442 O.2       1 RES1    0.0000
     28 C1B        7.3693   10.8952    2.4389 C.2       1 RES1    0.0000
     29 C2B        8.5896   10.8178    1.6684 C.2       1 RES1    0.0000
     30 Cu1B       7.4578    9.2842    1.1380 Cu        1 RES1    0.0000
@<TRIPOS>BOND
     1    1    2 1
     2    2    6 un
     3    3    1 1
     4    4    1 un
     5    5    1 un
     6    6    7 1
     7    7    3 un
     8    8    6 un
     9    9    7 un
    10   10    8 1
    11   11   10 un
    12   12   10 un
    13   13   11 1
    14   14   11 1
    15   15   12 1
    16   16   12 1
    17   17   13 1
    18   18   13 1
    19   19   15 1
    20   20   28 1
    21   21   18 1
    22   22   18 1
    23   23   29 1
    24   24    1 un
    25   25    2 un
    26   26    9 un
    27   27   10 un
    28   28   13 1
    29   29   15 1
    30   30   28 un
    31    4    5 un
    32    9   10 1
    33   11   12 2
    34   15   18 1
    35   28   29 2
    36   29   30 un
@<TRIPOS>SUBSTRUCTURE
     1 RES1 1

@<TRIPOS>CRYSIN
   9.8336   16.1220    5.3578  90.0000  90.0000  90.0000  19 1

# MOL2 file generated by ConQuest
# Please check atom types

@<TRIPOS>MOLECULE
ABAVIJ
    76    79     2
SMALL
NO_CHARGES
****
Generated from CSD

@<TRIPOS>ATOM
      1 Co1        2.4502    3.2552    9.0582 Co.oh     1 RES1    0.0000
      2 Co2       -1.0876   -3.2978    3.9516 Co.oh     1 RES1    0.0000
      3 N1         2.0597    1.5317    7.8703 N.ar      1 RES1    0.0000
      4 C1         0.8302    1.1377    7.5677 C.ar      1 RES1    0.0000
      5 H1         0.0990    1.6458    7.8971 H         1 RES1    0.0000
      6 C2         0.5587    0.0186    6.7948 C.ar      1 RES1    0.0000
      7 H2        -0.3372   -0.2172    6.5848 H         1 RES1    0.0000
      8 C3         1.6226   -0.7549    6.3316 C.ar      1 RES1    0.0000
      9 C4         2.9145   -0.3503    6.6394 C.ar      1 RES1    0.0000
     10 H3         3.6650   -0.8425    6.3255 H         1 RES1    0.0000
     11 C5         3.0848    0.7899    7.4164 C.ar      1 RES1    0.0000
     12 H4         3.9691    1.0571    7.6367 H         1 RES1    0.0000
     13 C6         1.3657   -1.9912    5.4908 C.2       1 RES1    0.0000
     14 O1         0.1721   -2.1994    5.1789 O.co2     1 RES1    0.0000
     15 O2         2.3707   -2.7055    5.2366 O.co2     1 RES1    0.0000
     16 N2         4.1850    8.0031    5.0565 N.ar      1 RES1    0.0000
     17 C7         3.1876    7.1590    5.3621 C.ar      1 RES1    0.0000
     18 H5         2.3127    7.3550    5.0503 H         1 RES1    0.0000
     19 C8         3.3816    6.0143    6.1134 C.ar      1 RES1    0.0000
     20 H6         2.6547    5.4319    6.2977 H         1 RES1    0.0000
     21 C9         4.6399    5.7288    6.5910 C.ar      1 RES1    0.0000
     22 C10        5.6999    6.5842    6.2606 C.ar      1 RES1    0.0000
     23 H7         6.5855    6.4026    6.5550 H         1 RES1    0.0000
     24 C11        5.4161    7.7053    5.4898 C.ar      1 RES1    0.0000
     25 H8         6.1301    8.2891    5.2592 H         1 RES1    0.0000
     26 C12        4.9012    4.5265    7.4730 C.2       1 RES1    0.0000
     27 O3         3.9561    3.7398    7.7128 O.co2     1 RES1    0.0000
     28 O4         6.0802    4.4054    7.8960 O.co2     1 RES1    0.0000
     29 N3         2.8040    5.0004   10.2848 N.ar      1 RES1    0.0000
     30 C13        3.0461    4.8968   11.6145 C.ar      1 RES1    0.0000
     31 H9         3.0765    4.0346   12.0097 H         1 RES1    0.0000
     32 C14        3.2495    6.0077   12.4142 C.ar      1 RES1    0.0000
     33 H10        3.4269    5.9028   13.3415 H         1 RES1    0.0000
     34 C15        3.1941    7.2762   11.8554 C.ar      1 RES1    0.0000
     35 C16        2.9226    7.3809   10.5184 C.ar      1 RES1    0.0000
     36 H11        2.8418    8.2367   10.1139 H         1 RES1    0.0000
     37 C17        2.7661    6.2458    9.7661 C.ar      1 RES1    0.0000
     38 H12        2.6240    6.3398    8.8316 H         1 RES1    0.0000
     39 C18        3.4558    8.5115   12.6931 C.2       1 RES1    0.0000
     40 O5         2.5435    9.3438   12.8774 O.co2     1 RES1    0.0000
     41 O6         4.6475    8.6099   13.1017 O.co2     1 RES1    0.0000
     42 N4         5.5783   -1.5126   13.0760 N.ar      1 RES1    0.0000
     43 C19        5.7443   -0.2726   13.5638 C.ar      1 RES1    0.0000
     44 H13        5.9945   -0.1805   14.4757 H         1 RES1    0.0000
     45 C20        5.5721    0.8841   12.8115 C.ar      1 RES1    0.0000
     46 H14        5.7435    1.7347   13.1964 H         1 RES1    0.0000
     47 C21        5.1449    0.7850   11.4879 C.ar      1 RES1    0.0000
     48 C22        4.9393   -0.5032   10.9764 C.ar      1 RES1    0.0000
     49 H15        4.6238   -0.6201   10.0882 H         1 RES1    0.0000
     50 C23        5.1990   -1.6044   11.7782 C.ar      1 RES1    0.0000
     51 H16        5.1069   -2.4700   11.3974 H         1 RES1    0.0000
     52 C24        4.9001    1.9912   10.6244 C.2       1 RES1    0.0000
     53 O7         5.8411    2.8229   10.5215 O.co2     1 RES1    0.0000
     54 O8         3.7609    2.0471   10.1417 O.co2     1 RES1    0.0000
     55 O9        -1.0591   -3.5794    8.0586 O.3       2 RES2    0.0000
     56 H17       -1.0883   -3.2602    7.2816 H         2 RES2    0.0000
     57 C25        0.3423   -3.6840    8.4930 C.3       2 RES2    0.0000
     58 H18        0.5365   -4.6050    8.8017 H         2 RES2    0.0000
     59 H19        0.9504   -3.4721    7.7416 H         2 RES2    0.0000
     60 C26        0.5329   -2.7709    9.5479 C.3       2 RES2    0.0000
     61 H20        1.4756   -2.7735    9.8165 H         2 RES2    0.0000
     62 H21       -0.0253   -3.0299   10.3105 H         2 RES2    0.0000
     63 H22        0.2813   -1.8708    9.2484 H         2 RES2    0.0000
     64 O2A        0.9661    2.7055   10.3826 O.2       1 RES1    0.0000
     65 O6C        1.1489    4.4726    7.9557 O.2       1 RES1    0.0000
     66 N2B       -0.7182   -5.0794    5.0565 N.2       1 RES1    0.0000
     67 O4A       -2.3216   -4.4054    2.7500 O.2       1 RES1    0.0000
     68 O5B        0.4495   -3.7387    2.5854 O.2       1 RES1    0.0000
     69 N4        -1.4189   -1.5126    2.7840 N.2       1 RES1    0.0000
     70 O7A       -2.5607   -2.8229    5.3755 O.2       1 RES1    0.0000
     71 Co1A       3.8548   -3.2552    3.9122 Co.oh     1 RES1    0.0000
     72 Co2B       3.8156    9.7847    3.9516 Co.oh     1 RES1    0.0000
     73 Co2A       7.3142    3.2978    9.0976 Co.oh     1 RES1    0.0000
     74 Co2B       1.0064    9.7847   14.2436 Co.oh     1 RES1    0.0000
     75 Co1C       5.9488    9.8273   14.2042 Co.oh     1 RES1    0.0000
     76 Co2        5.9096   -3.2978   14.2436 Co.oh     1 RES1    0.0000
@<TRIPOS>BOND
     1    1    3 1
     2    2   14 1
     3    3    4 ar
     4    4    5 1
     5    6    4 ar
     6    7    6 1
     7    8    6 ar
     8    9    8 ar
     9   10    9 1
    10   11    3 ar
    11   12   11 1
    12   13    8 1
    13   14   13 un
    14   15   13 un
    15   16   17 ar
    16   17   18 1
    17   19   17 ar
    18   20   19 1
    19   21   19 ar
    20   22   21 ar
    21   23   22 1
    22   24   16 ar
    23   25   24 1
    24   26   21 1
    25   27    1 1
    26   28   26 un
    27   29    1 1
    28   30   29 ar
    29   31   30 1
    30   32   30 ar
    31   33   32 1
    32   34   32 ar
    33   35   34 ar
    34   36   35 1
    35   37   29 ar
    36   38   37 1
    37   39   34 1
    38   40   39 un
    39   41   39 un
    40   42   43 ar
    41   43   44 1
    42   45   43 ar
    43   46   45 1
    44   47   45 ar
    45   48   47 ar
    46   49   48 1
    47   50   42 ar
    48   51   50 1
    49   52   47 1
    50   53   52 un
    51   54    1 1
    52   55   56 1
    53   57   55 1
    54   58   57 1
    55   59   57 1
    56   60   57 1
    57   61   60 1
    58   62   60 1
    59   63   60 1
    60   64    1 un
    61   65    1 un
    62   66    2 un
    63   67    2 un
    64   68    2 un
    65   69    2 un
    66   70    2 un
    67   71   15 un
    68   72   16 un
    69   73   28 un
    70   74   40 un
    71   75   41 un
    72   76   42 un
    73    9   11 ar
    74   22   24 ar
    75   26   27 un
    76   35   37 ar
    77   48   50 ar
    78   52   54 un
    79   53   73 un
@<TRIPOS>SUBSTRUCTURE
     1 RES1 1
     2 RES2 55

@<TRIPOS>CRYSIN
   9.8064   26.1650   10.6685  90.0000 105.2670  90.0000   9 1

# MOL2 file generated by ConQuest
# Please check atom types

@<TRIPOS>MOLECULE
ABAVOP
    68    71     1
SMALL
NO_CHARGES
****
Generated from CSD

@<TRIPOS>ATOM
      1 Co1        7.2626    6.6060    9.9531 Co.oh     1 RES1    0.0000
      2 Co2        6.0049   13.2120   14.9296 Co.oh     1 RES1    0.0000
      3 N1         5.6357   11.4218   13.7482 N.ar      1 RES1    0.0000
      4 C1         5.3502   11.4548   12.4403 C.ar      1 RES1    0.0000
      5 H1         5.3141   12.2938   12.0183 H         1 RES1    0.0000
      6 C2         5.1075   10.3397   11.6789 C.ar      1 RES1    0.0000
      7 H2         4.8981   10.4256   10.7662 H         1 RES1    0.0000
      8 C3         5.1730    9.0859   12.2632 C.ar      1 RES1    0.0000
      9 C4         5.4957    9.0172   13.6019 C.ar      1 RES1    0.0000
     10 H3         5.5787    8.1862   14.0318 H         1 RES1    0.0000
     11 C5         5.6953   10.1957   14.3016 C.ar      1 RES1    0.0000
     12 H4         5.8836   10.1349   15.2202 H         1 RES1    0.0000
     13 C6         4.8491    7.8321   11.4789 C.2       1 RES1    0.0000
     14 O1         3.6548    7.7905   11.0818 O.co2     1 RES1    0.0000
     15 O2         5.7172    6.9531   11.3286 O.co2     1 RES1    0.0000
     16 N2         6.8638    8.4200    8.9040 N.ar      1 RES1    0.0000
     17 C7         5.6502    8.6618    8.3825 C.ar      1 RES1    0.0000
     18 H5         4.9691    8.0303    8.5238 H         1 RES1    0.0000
     19 C8         5.3538    9.8007    7.6440 C.ar      1 RES1    0.0000
     20 H6         4.4914    9.9341    7.2956 H         1 RES1    0.0000
     21 C9         6.3512   10.7308    7.4310 C.ar      1 RES1    0.0000
     22 C10        7.5980   10.4890    7.9993 C.ar      1 RES1    0.0000
     23 H7         8.2942   11.1139    7.8988 H         1 RES1    0.0000
     24 C11        7.8054    9.3330    8.7069 C.ar      1 RES1    0.0000
     25 H8         8.6588    9.1810    9.0712 H         1 RES1    0.0000
     26 C12        6.0678   11.9582    6.5830 C.2       1 RES1    0.0000
     27 O3         4.8933   12.1219    6.2237 O.co2     1 RES1    0.0000
     28 O4         7.0594   12.7019    6.3311 O.co2     1 RES1    0.0000
     29 N1B        8.8896    1.7902    6.1580 N.ar      1 RES1    0.0000
     30 C1B        9.1751    1.7572    7.4658 C.ar      1 RES1    0.0000
     31 H1B        9.2112    0.9182    7.8878 H         1 RES1    0.0000
     32 C2B        9.4178    2.8723    8.2272 C.ar      1 RES1    0.0000
     33 H2B        9.6271    2.7864    9.1399 H         1 RES1    0.0000
     34 C3B        9.3523    4.1261    7.6430 C.ar      1 RES1    0.0000
     35 C4B        9.0296    4.1948    6.3043 C.ar      1 RES1    0.0000
     36 H3B        8.9466    5.0258    5.8743 H         1 RES1    0.0000
     37 C5B        8.8300    3.0163    5.6046 C.ar      1 RES1    0.0000
     38 H4B        8.6417    3.0771    4.6859 H         1 RES1    0.0000
     39 C6B        9.6762    5.3799    8.4273 C.2       1 RES1    0.0000
     40 O1B       10.8704    5.4215    8.8244 O.co2     1 RES1    0.0000
     41 O2B        8.8081    6.2589    8.5776 O.co2     1 RES1    0.0000
     42 N2B        7.6614    4.7920   11.0021 N.ar      1 RES1    0.0000
     43 C7B        8.8751    4.5502   11.5237 C.ar      1 RES1    0.0000
     44 H5B        9.5561    5.1817   11.3823 H         1 RES1    0.0000
     45 C8B        9.1715    3.4113   12.2622 C.ar      1 RES1    0.0000
     46 H6B       10.0339    3.2779   12.6105 H         1 RES1    0.0000
     47 C9B        8.1741    2.4812   12.4752 C.ar      1 RES1    0.0000
     48 C10B       6.9273    2.7230   11.9069 C.ar      1 RES1    0.0000
     49 H7B        6.2311    2.0981   12.0074 H         1 RES1    0.0000
     50 C11B       6.7199    3.8790   11.1992 C.ar      1 RES1    0.0000
     51 H8B        5.8664    4.0310   10.8349 H         1 RES1    0.0000
     52 C12B       8.4575    1.2538   13.3232 C.2       1 RES1    0.0000
     53 O3B        9.6319    1.0901   13.6825 O.co2     1 RES1    0.0000
     54 O4B        7.4659    0.5101   13.5750 O.co2     1 RES1    0.0000
     55 O3C        8.5246    7.6961   11.2002 O.2       1 RES1    0.0000
     56 O3A        6.0006    5.5159    8.7060 O.2       1 RES1    0.0000
     57 N1B        6.3742   15.0022   16.1110 N.2       1 RES1    0.0000
     58 O1C        7.2861   12.0275   16.0583 O.2       1 RES1    0.0000
     59 O1A        4.7237   14.3965   13.8009 O.2       1 RES1    0.0000
     60 O4         4.5440   12.7019   16.2842 O.2       1 RES1    0.0000
     61 O4B        7.4659   13.7221   13.5750 O.2       1 RES1    0.0000
     62 Co2C       2.3736    6.6060    9.9531 Co.oh     1 RES1    0.0000
     63 Co1C       3.6313   13.2120    4.9765 Co.oh     1 RES1    0.0000
     64 Co2        8.5203   13.2120    4.9765 Co.oh     1 RES1    0.0000
     65 Co2        8.5203    0.0000    4.9765 Co.oh     1 RES1    0.0000
     66 Co2C      12.1516    6.6060    9.9531 Co.oh     1 RES1    0.0000
     67 Co1C      10.8939    0.0000   14.9296 Co.oh     1 RES1    0.0000
     68 Co2        6.0049    0.0000   14.9296 Co.oh     1 RES1    0.0000
@<TRIPOS>BOND
     1    1   15 1
     2    2    3 1
     3    3    4 ar
     4    4    5 1
     5    6    4 ar
     6    7    6 1
     7    8    6 ar
     8    9    8 ar
     9   10    9 1
    10   11    3 ar
    11   12   11 1
    12   13    8 1
    13   14   13 un
    14   15   13 un
    15   16    1 1
    16   17   16 ar
    17   18   17 1
    18   19   17 ar
    19   20   19 1
    20   21   19 ar
    21   22   21 ar
    22   23   22 1
    23   24   16 ar
    24   25   24 1
    25   26   21 1
    26   27   26 un
    27   28   26 un
    28   29   30 ar
    29   30   31 1
    30   32   30 ar
    31   33   32 1
    32   34   32 ar
    33   35   34 ar
    34   36   35 1
    35   37   29 ar
    36   38   37 1
    37   39   34 1
    38   40   39 un
    39   41    1 1
    40   42    1 1
    41   43   42 ar
    42   44   43 1
    43   45   43 ar
    44   46   45 1
    45   47   45 ar
    46   48   47 ar
    47   49   48 1
    48   50   42 ar
    49   51   50 1
    50   52   47 1
    51   53   52 un
    52   54   52 un
    53   55    1 un
    54   56    1 un
    55   57    2 un
    56   58    2 un
    57   59    2 un
    58   60    2 un
    59   61    2 un
    60   62   14 un
    61   63   27 un
    62   64   28 un
    63   65   29 un
    64   66   40 un
    65   67   53 un
    66   68   54 un
    67    9   11 ar
    68   22   24 ar
    69   35   37 ar
    70   39   41 un
    71   48   50 ar
@<TRIPOS>SUBSTRUCTURE
     1 RES1 1

@<TRIPOS>CRYSIN
   9.7780   13.2120   10.2660  90.0000 104.1830  90.0000 231 1

# MOL2 file generated by ConQuest
# Please check atom types

@<TRIPOS>MOLECULE
ABAVUY
    98   111     1
SMALL
NO_CHARGES
****
Generated from CSD

@<TRIPOS>ATOM
      1 Cd1        3.4816   10.8507   12.5736 Cd        1 RES1    0.0000
      2 Cd2        6.0683   11.6704   15.1711 Cd        1 RES1    0.0000
      3 O1         4.3692   12.6467   13.6933 O.co2     1 RES1    0.0000
      4 O2         7.3222    6.2911    8.5692 O.co2     1 RES1    0.0000
      5 O3         7.3947    9.5850   14.2742 O.co2     1 RES1    0.0000
      6 O4         2.9614   14.3353   13.3535 O.co2     1 RES1    0.0000
      7 O5         2.8999   16.4494   18.8994 O.co2     1 RES1    0.0000
      8 O6         2.4279   10.4649   14.6943 O.3       1 RES1    0.0000
      9 O7         5.3169   10.0305   13.6598 O.co2     1 RES1    0.0000
     10 O8         5.1278    6.6366    8.7701 O.co2     1 RES1    0.0000
     11 N1         1.4529   11.6458   11.7648 N.ar      1 RES1    0.0000
     12 N2         7.7747    7.1688   11.0333 N.2       1 RES1    0.0000
     13 C1         6.4310    9.4139   13.4991 C.2       1 RES1    0.0000
     14 C2         6.6058    8.5441   12.3374 C.2       1 RES1    0.0000
     15 N3         7.7584    7.8564   12.1633 N.3       1 RES1    0.0000
     16 H1         8.1799    7.7653   12.5382 H         1 RES1    0.0000
     17 C3         6.5761    7.4243   10.4792 C.2       1 RES1    0.0000
     18 C4         6.3125    6.7255    9.1517 C.2       1 RES1    0.0000
     19 C5         5.8167    8.2597   11.2359 C.2       1 RES1    0.0000
     20 H2         4.7678    8.6763   10.9479 H         1 RES1    0.0000
     21 N4         4.9368   13.4044   16.1742 N.2       1 RES1    0.0000
     22 C6         3.9935   14.0520   15.4778 C.2       1 RES1    0.0000
     23 C7         3.3844   15.0108   16.2880 C.2       1 RES1    0.0000
     24 H3         2.8261   15.6306   16.1708 H         1 RES1    0.0000
     25 C8         4.0087   14.9497   17.5134 C.2       1 RES1    0.0000
     26 C9         3.8666   15.6995   18.7923 C.2       1 RES1    0.0000
     27 N5         4.9621   13.9420   17.4096 N.pl3     1 RES1    0.0000
     28 H4         5.4661   13.8865   17.6774 H         1 RES1    0.0000
     29 C10        3.7323   13.6699   14.0766 C.2       1 RES1    0.0000
     30 C11        1.5716   12.4923   10.7471 C.ar      1 RES1    0.0000
     31 H5         2.1903   13.0977   10.7303 H         1 RES1    0.0000
     32 C12        0.6619   12.5123    9.7276 C.ar      1 RES1    0.0000
     33 H6         0.8173   12.8533    9.1065 H         1 RES1    0.0000
     34 C13       -0.3549   11.6247    9.6857 C.ar      1 RES1    0.0000
     35 C14       -0.5828   10.8004   10.7939 C.ar      1 RES1    0.0000
     36 H7        -1.4563   10.3204   11.0986 H         1 RES1    0.0000
     37 C15        0.3859   10.8337   11.7950 C.ar      1 RES1    0.0000
     38 H8         0.2127   10.1760   12.6554 H         1 RES1    0.0000
     39 N6        -1.1156   11.6113    8.4537 N.2       1 RES1    0.0000
     40 O9         4.7943   15.5429   19.6427 O.co2     1 RES1    0.0000
     41 N1B       -4.2125   10.5726    4.9751 N.ar      1 RES1    0.0000
     42 C11B      -4.3312    9.7261    5.9929 C.ar      1 RES1    0.0000
     43 H5B       -4.9499    9.1207    6.0096 H         1 RES1    0.0000
     44 C12B      -3.4215    9.7061    7.0124 C.ar      1 RES1    0.0000
     45 H6B       -3.5769    9.3651    7.6334 H         1 RES1    0.0000
     46 C13B      -2.4047   10.5937    7.0542 C.ar      1 RES1    0.0000
     47 C14B      -2.1768   11.4180    5.9460 C.ar      1 RES1    0.0000
     48 H7B       -1.3033   11.8980    5.6414 H         1 RES1    0.0000
     49 C15B      -3.1455   11.3847    4.9450 C.ar      1 RES1    0.0000
     50 H8B       -2.9722   12.0424    4.0846 H         1 RES1    0.0000
     51 N6B       -1.6440   10.6071    8.2863 N.2       1 RES1    0.0000
     52 Cd1B      -6.2412   11.3677    4.1664 Cd        1 RES1    0.0000
     53 Cd2B      -8.8279   10.5480    1.5689 Cd        1 RES1    0.0000
     54 O1B       -7.1288    9.5717    3.0467 O.co2     1 RES1    0.0000
     55 O2B      -10.0818   15.9273    8.1708 O.co2     1 RES1    0.0000
     56 O3B      -10.1543   12.6334    2.4658 O.co2     1 RES1    0.0000
     57 O4B       -5.7210    7.8831    3.3865 O.co2     1 RES1    0.0000
     58 O5B       -5.6595    5.7690   -2.1595 O.co2     1 RES1    0.0000
     59 O6B       -5.1875   11.7535    2.0456 O.3       1 RES1    0.0000
     60 O7B       -8.0765   12.1879    3.0802 O.co2     1 RES1    0.0000
     61 O8B       -7.8873   15.5818    7.9699 O.co2     1 RES1    0.0000
     62 N2B      -10.5343   15.0496    5.7067 N.2       1 RES1    0.0000
     63 C1B       -9.1905   12.8045    3.2409 C.2       1 RES1    0.0000
     64 C2B       -9.3653   13.6743    4.4026 C.2       1 RES1    0.0000
     65 N3B      -10.5180   14.3620    4.5767 N.3       1 RES1    0.0000
     66 H1B      -10.9395   14.4531    4.2017 H         1 RES1    0.0000
     67 C3B       -9.3357   14.7941    6.2607 C.2       1 RES1    0.0000
     68 C4B       -9.0721   15.4929    7.5882 C.2       1 RES1    0.0000
     69 C5B       -8.5763   13.9587    5.5041 C.2       1 RES1    0.0000
     70 H2B       -7.5273   13.5421    5.7920 H         1 RES1    0.0000
     71 N4B       -7.6964    8.8140    0.5658 N.2       1 RES1    0.0000
     72 C6B       -6.7531    8.1664    1.2622 C.2       1 RES1    0.0000
     73 C7B       -6.1440    7.2076    0.4520 C.2       1 RES1    0.0000
     74 H3B       -5.5857    6.5878    0.5692 H         1 RES1    0.0000
     75 C8B       -6.7683    7.2687   -0.7734 C.2       1 RES1    0.0000
     76 C9B       -6.6262    6.5189   -2.0523 C.2       1 RES1    0.0000
     77 N5B       -7.7216    8.2764   -0.6696 N.pl3     1 RES1    0.0000
     78 H4B       -8.2257    8.3319   -0.9374 H         1 RES1    0.0000
     79 C10B      -6.4919    8.5485    2.6633 C.2       1 RES1    0.0000
     80 O9B       -7.5539    6.6755   -2.9027 O.co2     1 RES1    0.0000
     81 Cd1A      -4.8614    5.2961   -4.2036 Cd        1 RES1    0.0000
     82 Cd1A       2.2035   16.4053   12.5364 Cd        1 RES1    0.0000
     83 Cd1C      -4.9630    5.8131    4.2036 Cd        1 RES1    0.0000
     84 Cd1C       2.1018   16.9223   20.9435 Cd        1 RES1    0.0000
     85 Cd2A     -10.2077   17.2250    9.9389 Cd        1 RES1    0.0000
     86 Cd2A       9.4411    6.1158    9.9389 Cd        1 RES1    0.0000
     87 Cd2C     -12.2007   16.1026    6.8011 Cd        1 RES1    0.0000
     88 Cd2C       7.4481    4.9934    6.8011 Cd        1 RES1    0.0000
     89 O2A       -8.7020   11.8457   -0.1992 O.2       1 RES1    0.0000
     90 O2A        8.1872   11.8457   16.5408 O.2       1 RES1    0.0000
     91 O2C      -10.9468   10.3727    0.1992 O.2       1 RES1    0.0000
     92 O2C        5.9425   10.3727   16.9392 O.2       1 RES1    0.0000
     93 O4A        2.7236    8.7807   11.7565 O.2       1 RES1    0.0000
     94 O4C       -5.4832   13.4377    4.9835 O.2       1 RES1    0.0000
     95 O5A       -7.0393   10.8948    6.2105 O.2       1 RES1    0.0000
     96 O5C        4.2797   11.3236   10.5294 O.2       1 RES1    0.0000
     97 N2A        7.7347   12.7234   14.0766 N.2       1 RES1    0.0000
     98 N2C      -10.4943    9.4950    2.6633 N.2       1 RES1    0.0000
@<TRIPOS>BOND
     1    1    3 1
     2    2    3 1
     3    3   29 un
     4    4   18 1
     5    5    2 1
     6    6   29 un
     7    7   26 1
     8    8    1 1
     9    9    1 1
    10   10   18 2
    11   11    1 1
    12   12   15 1
    13   13    5 un
    14   14   13 1
    15   15   14 1
    16   16   15 1
    17   17   12 2
    18   18   17 1
    19   19   14 2
    20   20   19 1
    21   21    2 1
    22   22   21 2
    23   23   22 1
    24   24   23 1
    25   25   23 2
    26   26   25 1
    27   27   21 1
    28   28   27 1
    29   29   22 1
    30   30   11 ar
    31   31   30 1
    32   32   30 ar
    33   33   32 1
    34   34   32 ar
    35   35   34 ar
    36   36   35 1
    37   37   11 ar
    38   38   37 1
    39   39   34 1
    40   40   26 2
    41   41   42 ar
    42   42   43 1
    43   44   42 ar
    44   45   44 1
    45   46   44 ar
    46   47   46 ar
    47   48   47 1
    48   49   41 ar
    49   50   49 1
    50   51   39 2
    51   52   41 1
    52   53   54 1
    53   54   52 1
    54   55   68 1
    55   56   53 1
    56   57   79 un
    57   58   76 1
    58   59   52 1
    59   60   52 1
    60   61   68 2
    61   62   65 1
    62   63   56 un
    63   64   63 1
    64   65   64 1
    65   66   65 1
    66   67   62 2
    67   68   67 1
    68   69   64 2
    69   70   69 1
    70   71   53 1
    71   72   71 2
    72   73   72 1
    73   74   73 1
    74   75   73 2
    75   76   75 1
    76   77   71 1
    77   78   77 1
    78   79   54 un
    79   80   76 2
    80   81   58 un
    81   82    6 un
    82   83   57 un
    83   84    7 un
    84   85   55 un
    85   86    4 un
    86   87   55 un
    87   88    4 un
    88   89   53 un
    89   90    2 un
    90   91   53 un
    91   92    2 un
    92   93    1 un
    93   94   52 un
    94   95   52 un
    95   96    1 un
    96   97    2 un
    97   98   53 un
    98    2    9 1
    99    9   13 un
   100   12   86 un
   101   17   19 1
   102   25   27 1
   103   35   37 ar
   104   46   51 1
   105   47   49 ar
   106   53   60 1
   107   60   63 un
   108   62   87 un
   109   67   69 1
   110   72   79 1
   111   75   77 1
@<TRIPOS>SUBSTRUCTURE
     1 RES1 1

@<TRIPOS>CRYSIN
   9.8244   11.1092   16.9659  90.0000  99.3610  90.0000  14 1

# MOL2 file generated by ConQuest
# Please check atom types

@<TRIPOS>MOLECULE
ABAWOT
   143   156     1
SMALL
NO_CHARGES
****
Generated from CSD

@<TRIPOS>ATOM
      1 Cu1       18.0285   15.2157    2.2734 Cu        1 RES1    0.0000
      2 Cu2       16.3426   15.4501    5.1871 Cu        1 RES1    0.0000
      3 O1        15.6515   13.9970    4.0592 O.co2     1 RES1    0.0000
      4 O2        17.0942   13.4928    2.4039 O.co2     1 RES1    0.0000
      5 C1        14.5017    9.9682    4.3592 C.ar      1 RES1    0.0000
      6 H1        13.8715    9.6758    5.0066 H         1 RES1    0.0000
      7 C2        15.7906   11.7480    3.3291 C.ar      1 RES1    0.0000
      8 C3        16.2046   13.1888    3.2666 C.2       1 RES1    0.0000
      9 C4        14.8526   11.3109    4.2870 C.ar      1 RES1    0.0000
     10 H2        14.4604   11.9354    4.8842 H         1 RES1    0.0000
     11 C5        15.0759    9.0538    3.4801 C.ar      1 RES1    0.0000
     12 C6        16.3654   10.8142    2.4813 C.ar      1 RES1    0.0000
     13 H3        17.0101   11.1003    1.8445 H         1 RES1    0.0000
     14 C7        16.0240    9.4690    2.5383 C.ar      1 RES1    0.0000
     15 H4        16.4275    8.8423    1.9483 H         1 RES1    0.0000
     16 N1        19.0913   16.6952    1.4420 N.ar      1 RES1    0.0000
     17 C8        20.4949   18.8598    0.3002 C.ar      1 RES1    0.0000
     18 C9        20.8092   18.3580    1.5503 C.ar      1 RES1    0.0000
     19 H5        21.5135   18.7530    2.0520 H         1 RES1    0.0000
     20 C10       19.4444   18.2242   -0.3625 C.ar      1 RES1    0.0000
     21 H6        19.1917   18.5181   -1.2304 H         1 RES1    0.0000
     22 C11       20.1081   17.2865    2.0771 C.ar      1 RES1    0.0000
     23 H7        20.3622   16.9553    2.9297 H         1 RES1    0.0000
     24 C12       18.7679   17.1761    0.2251 C.ar      1 RES1    0.0000
     25 H8        18.0467   16.7764   -0.2469 H         1 RES1    0.0000
     26 O3        14.6313    7.7474    3.6042 O.3       1 RES1    0.0000
     27 C13       16.7199    5.0105    2.3520 C.ar      1 RES1    0.0000
     28 C14       14.4963    6.5065    1.5489 C.ar      1 RES1    0.0000
     29 H9        13.7524    7.0291    1.2719 H         1 RES1    0.0000
     30 C15       16.2746    6.0571    3.1523 C.ar      1 RES1    0.0000
     31 H10       16.7227    6.2779    3.9609 H         1 RES1    0.0000
     32 C16       15.1569    6.7694    2.7398 C.ar      1 RES1    0.0000
     33 C17       14.9638    5.4491    0.7754 C.ar      1 RES1    0.0000
     34 O4        17.8037    4.2143    2.6882 O.3       1 RES1    0.0000
     35 C18       19.5900    5.7819    3.0988 C.ar      1 RES1    0.0000
     36 H11       19.5589    6.0416    2.1848 H         1 RES1    0.0000
     37 C19       18.7357    4.7990    3.5731 C.ar      1 RES1    0.0000
     38 C20       18.7830    4.3574    4.8812 C.ar      1 RES1    0.0000
     39 H12       18.2237    3.6483    5.1788 H         1 RES1    0.0000
     40 O5        14.4537    5.0849   -0.4668 O.3       1 RES1    0.0000
     41 C21       16.0708    4.6948    1.1679 C.ar      1 RES1    0.0000
     42 H13       16.3765    3.9748    0.6307 H         1 RES1    0.0000
     43 C22       12.0745    5.5626   -0.1000 C.ar      1 RES1    0.0000
     44 H14       12.1379    5.3931    0.8320 H         1 RES1    0.0000
     45 C23       13.0963    5.6295   -2.2964 C.ar      1 RES1    0.0000
     46 H15       13.8624    5.5190   -2.8467 H         1 RES1    0.0000
     47 C24       13.1935    5.4662   -0.9156 C.ar      1 RES1    0.0000
     48 C25       20.5173    6.0089    5.3155 C.ar      1 RES1    0.0000
     49 C26       10.8499    5.9172   -0.6805 C.ar      1 RES1    0.0000
     50 H16       10.0826    6.0167   -0.1307 H         1 RES1    0.0000
     51 C27       10.7404    6.1288   -2.0597 C.ar      1 RES1    0.0000
     52 C28       19.6808    4.9857    5.7606 C.ar      1 RES1    0.0000
     53 H17       19.7184    4.7104    6.6685 H         1 RES1    0.0000
     54 C29       11.8614    5.9560   -2.8668 C.ar      1 RES1    0.0000
     55 H18       11.7869    6.0602   -3.8073 H         1 RES1    0.0000
     56 C30       20.4950    6.3884    3.9708 C.ar      1 RES1    0.0000
     57 H19       21.0918    7.0539    3.6517 H         1 RES1    0.0000
     58 C31       21.4373    6.7398    6.2567 C.2       1 RES1    0.0000
     59 C32        9.4463    6.6342   -2.6454 C.2       1 RES1    0.0000
     60 O6         8.6408    7.1726   -1.8202 O.co2     1 RES1    0.0000
     61 O7         9.2687    6.5162   -3.8945 O.co2     1 RES1    0.0000
     62 O8        21.3849    6.4414    7.5034 O.co2     1 RES1    0.0000
     63 O9        22.2288    7.6267    5.8450 O.co2     1 RES1    0.0000
     64 N1F       22.6262   22.1823   -1.4420 N.ar      1 RES1    0.0000
     65 C8F       21.2226   20.0177   -0.3002 C.ar      1 RES1    0.0000
     66 C9F       20.9083   20.5195   -1.5503 C.ar      1 RES1    0.0000
     67 H5F       20.2040   20.1245   -2.0520 H         1 RES1    0.0000
     68 C10F      22.2731   20.6533    0.3625 C.ar      1 RES1    0.0000
     69 H6F       22.5258   20.3594    1.2304 H         1 RES1    0.0000
     70 C11F      21.6094   21.5910   -2.0771 C.ar      1 RES1    0.0000
     71 H7F       21.3553   21.9222   -2.9297 H         1 RES1    0.0000
     72 C12F      22.9496   21.7014   -0.2251 C.ar      1 RES1    0.0000
     73 H8F       23.6708   22.1011    0.2469 H         1 RES1    0.0000
     74 Cu1A      14.6566   15.2157    8.1008 Cu        1 RES1    0.0000
     75 O1A       17.0336   13.9970    6.3150 O.co2     1 RES1    0.0000
     76 O2A       15.5909   13.4928    7.9703 O.co2     1 RES1    0.0000
     77 C1A       18.1834    9.9682    6.0149 C.ar      1 RES1    0.0000
     78 H1A       18.8136    9.6758    5.3676 H         1 RES1    0.0000
     79 C2A       16.8945   11.7480    7.0451 C.ar      1 RES1    0.0000
     80 C3A       16.4805   13.1888    7.1075 C.2       1 RES1    0.0000
     81 C4A       17.8325   11.3109    6.0871 C.ar      1 RES1    0.0000
     82 H2A       18.2248   11.9354    5.4900 H         1 RES1    0.0000
     83 C5A       17.6092    9.0538    6.8940 C.ar      1 RES1    0.0000
     84 C6A       16.3198   10.8142    7.8929 C.ar      1 RES1    0.0000
     85 H3A       15.6751   11.1003    8.5296 H         1 RES1    0.0000
     86 C7A       16.6611    9.4690    7.8358 C.ar      1 RES1    0.0000
     87 H4A       16.2577    8.8423    8.4259 H         1 RES1    0.0000
     88 O3A       18.0538    7.7474    6.7700 O.3       1 RES1    0.0000
     89 C13A      15.9652    5.0105    8.0221 C.ar      1 RES1    0.0000
     90 C14A      18.1889    6.5065    8.8253 C.ar      1 RES1    0.0000
     91 H9A       18.9327    7.0291    9.1023 H         1 RES1    0.0000
     92 C15A      16.4105    6.0571    7.2219 C.ar      1 RES1    0.0000
     93 H10A      15.9624    6.2779    6.4133 H         1 RES1    0.0000
     94 C16A      17.5282    6.7694    7.6343 C.ar      1 RES1    0.0000
     95 C17A      17.7213    5.4491    9.5988 C.ar      1 RES1    0.0000
     96 O4A       14.8814    4.2143    7.6860 O.3       1 RES1    0.0000
     97 C18A      13.0951    5.7819    7.2754 C.ar      1 RES1    0.0000
     98 H11A      13.1262    6.0416    8.1894 H         1 RES1    0.0000
     99 C19A      13.9494    4.7990    6.8011 C.ar      1 RES1    0.0000
    100 C20A      13.9021    4.3574    5.4929 C.ar      1 RES1    0.0000
    101 H12A      14.4614    3.6483    5.1954 H         1 RES1    0.0000
    102 O5A       18.2314    5.0849   10.8410 O.3       1 RES1    0.0000
    103 C21A      16.6143    4.6948    9.2062 C.ar      1 RES1    0.0000
    104 H13A      16.3087    3.9748    9.7434 H         1 RES1    0.0000
    105 C22A      20.6106    5.5626   10.4742 C.ar      1 RES1    0.0000
    106 H14A      20.5472    5.3931    9.5421 H         1 RES1    0.0000
    107 C23A      19.5889    5.6295   12.6706 C.ar      1 RES1    0.0000
    108 H15A      18.8228    5.5190   13.2208 H         1 RES1    0.0000
    109 C24A      19.4917    5.4662   11.2898 C.ar      1 RES1    0.0000
    110 C25A      12.1678    6.0089    5.0586 C.ar      1 RES1    0.0000
    111 C26A      21.8353    5.9172   11.0547 C.ar      1 RES1    0.0000
    112 H16A      22.6025    6.0167   10.5049 H         1 RES1    0.0000
    113 C27A      21.9448    6.1288   12.4338 C.ar      1 RES1    0.0000
    114 C28A      13.0044    4.9857    4.6136 C.ar      1 RES1    0.0000
    115 H17A      12.9667    4.7104    3.7056 H         1 RES1    0.0000
    116 C29A      20.8237    5.9560   13.2409 C.ar      1 RES1    0.0000
    117 H18A      20.8983    6.0602   14.1815 H         1 RES1    0.0000
    118 C30A      12.1902    6.3884    6.4033 C.ar      1 RES1    0.0000
    119 H19A      11.5933    7.0539    6.7225 H         1 RES1    0.0000
    120 C31A      11.2478    6.7398    4.1175 C.2       1 RES1    0.0000
    121 C32A      23.2388    6.6342   13.0196 C.2       1 RES1    0.0000
    122 O6A       24.0444    7.1726   12.1944 O.co2     1 RES1    0.0000
    123 O7A       23.4164    6.5162   14.2686 O.co2     1 RES1    0.0000
    124 O8A       11.3002    6.4414    2.8707 O.co2     1 RES1    0.0000
    125 O9A       10.4564    7.6267    4.5291 O.co2     1 RES1    0.0000
    126 Cu1B       9.6850    7.4402    2.2734 Cu        1 RES1    0.0000
    127 Cu1C      23.0001    7.4402    8.1008 Cu        1 RES1    0.0000
    128 Cu1F       7.0020    8.1108   -2.2734 Cu        1 RES1    0.0000
    129 Cu1F      23.6890   23.6618   -2.2734 Cu        1 RES1    0.0000
    130 Cu1G      25.6832    8.1108   12.6475 Cu        1 RES1    0.0000
    131 Cu2B       7.9991    7.6746    5.1871 Cu        1 RES1    0.0000
    132 Cu2B      24.6861    7.6746    5.1871 Cu        1 RES1    0.0000
    133 Cu2F       8.6879    7.8764   -5.1871 Cu        1 RES1    0.0000
    134 Cu2F      23.9972    7.8764   15.5612 Cu        1 RES1    0.0000
    135 N1A       13.5938   16.6952    8.9321 N.2       1 RES1    0.0000
    136 O6F       16.3897   16.1539    1.8202 O.2       1 RES1    0.0000
    137 O6G       16.2954   16.1539    8.5539 O.2       1 RES1    0.0000
    138 O7F       15.7618   16.8103    3.8945 O.2       1 RES1    0.0000
    139 O7G       16.9234   16.8103    6.4797 O.2       1 RES1    0.0000
    140 O8B       13.0414   14.2169    7.5034 O.2       1 RES1    0.0000
    141 O8C       19.6437   14.2169    2.8707 O.2       1 RES1    0.0000
    142 O9B       13.8853   15.4022    5.8450 O.2       1 RES1    0.0000
    143 O9C       18.7999   15.4022    4.5291 O.2       1 RES1    0.0000
@<TRIPOS>BOND
     1    1    4 1
     2    2    3 1
     3    3    8 un
     4    4    8 un
     5    5    6 1
     6    7    8 1
     7    9    5 ar
     8   10    9 1
     9   11    5 ar
    10   12    7 ar
    11   13   12 1
    12   14   11 ar
    13   15   14 1
    14   16    1 1
    15   17   18 ar
    16   18   19 1
    17   20   17 ar
    18   21   20 1
    19   22   16 ar
    20   23   22 1
    21   24   16 ar
    22   25   24 1
    23   26   11 1
    24   27   30 ar
    25   28   29 1
    26   30   31 1
    27   32   26 1
    28   33   28 ar
    29   34   27 1
    30   35   36 1
    31   37   34 1
    32   38   37 ar
    33   39   38 1
    34   40   33 1
    35   41   27 ar
    36   42   41 1
    37   43   44 1
    38   45   46 1
    39   47   40 1
    40   48   52 ar
    41   49   43 ar
    42   50   49 1
    43   51   49 ar
    44   52   38 ar
    45   53   52 1
    46   54   45 ar
    47   55   54 1
    48   56   35 ar
    49   57   56 1
    50   58   48 1
    51   59   51 1
    52   60   59 un
    53   61   59 un
    54   62   58 un
    55   63   58 un
    56   64   70 ar
    57   65   17 1
    58   66   65 ar
    59   67   66 1
    60   68   65 ar
    61   69   68 1
    62   70   66 ar
    63   71   70 1
    64   72   64 ar
    65   73   72 1
    66   74   76 1
    67   75    2 1
    68   76   80 un
    69   77   78 1
    70   79   80 1
    71   80   75 un
    72   81   77 ar
    73   82   81 1
    74   83   77 ar
    75   84   79 ar
    76   85   84 1
    77   86   83 ar
    78   87   86 1
    79   88   83 1
    80   89   92 ar
    81   90   91 1
    82   92   93 1
    83   94   88 1
    84   95   90 ar
    85   96   89 1
    86   97   98 1
    87   99   96 1
    88  100   99 ar
    89  101  100 1
    90  102   95 1
    91  103   89 ar
    92  104  103 1
    93  105  106 1
    94  107  108 1
    95  109  102 1
    96  110  114 ar
    97  111  105 ar
    98  112  111 1
    99  113  111 ar
   100  114  100 ar
   101  115  114 1
   102  116  107 ar
   103  117  116 1
   104  118   97 ar
   105  119  118 1
   106  120  110 1
   107  121  113 1
   108  122  121 un
   109  123  121 un
   110  124  120 un
   111  125  120 un
   112  126  124 un
   113  127   62 un
   114  128   60 un
   115  129   64 un
   116  130  122 un
   117  131  125 un
   118  132   63 un
   119  133   61 un
   120  134  123 un
   121  135   74 un
   122  136    1 un
   123  137   74 un
   124  138    2 un
   125  139    2 un
   126  140   74 un
   127  141    1 un
   128  142    2 un
   129  143    1 un
   130    2  143 un
   131    7    9 ar
   132   12   14 ar
   133   18   22 ar
   134   20   24 ar
   135   28   32 ar
   136   30   32 ar
   137   33   41 ar
   138   35   37 ar
   139   43   47 ar
   140   45   47 ar
   141   48   56 ar
   142   51   54 ar
   143   63  127 un
   144   68   72 ar
   145   74  142 un
   146   79   81 ar
   147   84   86 ar
   148   90   94 ar
   149   92   94 ar
   150   95  103 ar
   151   97   99 ar
   152  105  109 ar
   153  107  109 ar
   154  110  118 ar
   155  113  116 ar
   156  125  126 un
@<TRIPOS>SUBSTRUCTURE
     1 RES1 1

@<TRIPOS>CRYSIN
  16.6870   15.5510   20.7940  90.0000  93.7990  90.0000  15 1

# MOL2 file generated by ConQuest
# Please check atom types

@<TRIPOS>MOLECULE
ABAYIM
    28    31     1
SMALL
NO_CHARGES
****
Generated from CSD

@<TRIPOS>ATOM
      1 Ag1        7.0199    6.7380    1.2980 Ag        1 RES1    0.0000
      2 Ag2        4.4245    4.2754    2.2827 Ag        1 RES1    0.0000
      3 O1         6.5474    4.8573    2.8672 O.co2     1 RES1    0.0000
      4 O2         5.7757    5.1686    4.9256 O.co2     1 RES1    0.0000
      5 O3         7.5142    2.8175    4.9244 O.co2     1 RES1    0.0000
      6 O4         9.4817    2.4840    5.9088 O.co2     1 RES1    0.0000
      7 N1         8.3681    6.8125    4.4394 N.ar      1 RES1    0.0000
      8 N2        10.3087    4.9465    5.1072 N.ar      1 RES1    0.0000
      9 C1         6.6703    5.1125    4.0786 C.2       1 RES1    0.0000
     10 C2         8.0753    5.4921    4.4991 C.ar      1 RES1    0.0000
     11 C3         9.6393    7.1814    4.6747 C.ar      1 RES1    0.0000
     12 H1         9.8645    8.0837    4.6580 H         1 RES1    0.0000
     13 C4        10.6223    6.2399    4.9435 C.ar      1 RES1    0.0000
     14 H2        11.5100    6.5089    5.0104 H         1 RES1    0.0000
     15 C5         9.0506    4.5775    4.9173 C.ar      1 RES1    0.0000
     16 C6         8.6632    3.1642    5.2637 C.2       1 RES1    0.0000
     17 Ag1B       8.6332    7.0199   -1.6887 Ag        1 RES1    0.0000
     18 Ag1C       6.7380    8.3513    4.2847 Ag        1 RES1    0.0000
     19 O3B        4.8681    7.5142    1.9378 O.2       1 RES1    0.0000
     20 O4A        5.8895    5.2016   -0.0645 O.2       1 RES1    0.0000
     21 N1B        8.5587    8.3681    1.4527 N.2       1 RES1    0.0000
     22 Ag2B       3.4102    4.4245   -0.7040 Ag        1 RES1    0.0000
     23 Ag2C       4.2754    3.2611    5.2693 Ag        1 RES1    0.0000
     24 O2B        2.5170    5.7757    1.9389 O.2       1 RES1    0.0000
     25 N2B        2.7391    2.6231    2.1205 N.2       1 RES1    0.0000
     26 Ag1C       6.7380    0.6657    4.2847 Ag        1 RES1    0.0000
     27 Ag1A       8.3513    0.9476    7.2714 Ag        1 RES1    0.0000
     28 Ag2C      11.9610    3.2611    5.2693 Ag        1 RES1    0.0000
@<TRIPOS>BOND
     1    1    3 1
     2    2    3 1
     3    3    9 un
     4    4    9 un
     5    5   16 un
     6    6   16 un
     7    7   10 ar
     8    8   13 ar
     9    9   10 1
    10   10   15 ar
    11   11    7 ar
    12   12   11 1
    13   13   11 ar
    14   14   13 1
    15   15    8 ar
    16   16   15 1
    17   17    1 un
    18   18    1 un
    19   19    1 un
    20   20    1 un
    21   21    1 un
    22   22    2 un
    23   23    2 un
    24   24    2 un
    25   25    2 un
    26   26    5 un
    27   27    6 un
    28   28    8 un
    29    4   23 un
    30    7   18 un
    31   26   27 un
@<TRIPOS>SUBSTRUCTURE
     1 RES1 1

@<TRIPOS>CRYSIN
   7.6856    7.6856   11.9467  90.0000  90.0000  90.0000  78 1

# MOL2 file generated by ConQuest
# Please check atom types

@<TRIPOS>MOLECULE
ABAYIO
    61    59     4
SMALL
USER_CHARGES
****
Generated from CSD

@<TRIPOS>ATOM
      1 Mn1        5.5622    5.5622   26.7710 Mn        1 RES1    0.0000
      2 Cl1        3.8922    3.8922   26.7710 Cl        1 RES1   -1.0000
      3 O1         6.9257    4.9044   25.3093 O.co2     1 RES1    0.0000
      4 C1         8.6229    4.7626   23.6923 C.ar      1 RES1    0.0000
      5 C2         8.0634    3.6489   23.1221 C.ar      1 RES1    0.0000
      6 H1         7.2764    3.2580   23.5130 H         1 RES1    0.0000
      7 C3         7.9644    5.4211   24.8917 C.2       1 RES1    0.0000
      8 O2         3.9086    3.9086    3.9086 O.3       2 RES2    0.0000
      9 O3         5.0062    5.0062    5.0062 O.3       3 RES3    0.0000
     10 N1         6.1895    0.6452   26.7710 Du        4 SUP4    0.0000
     11 C4         6.1948    1.3278   25.4432 Du        4 SUP4    0.0000
     12 O1GB       8.4811    1.4617   20.3112 O.co2     1 RES1    0.0000
     13 C1GB       8.6229    3.0787   22.0084 C.ar      1 RES1    0.0000
     14 C2GB       9.7366    3.6489   21.4489 C.ar      1 RES1    0.0000
     15 H1GB      10.1275    3.2580   20.6619 H         1 RES1    0.0000
     16 C3GB       7.9644    1.8793   21.3499 C.2       1 RES1    0.0000
     17 O1YB      11.9238    6.4598   21.8666 O.co2     1 RES1    0.0000
     18 C1YB      10.3068    4.7626   22.0084 C.ar      1 RES1    0.0000
     19 C2YB       9.7366    5.3221   23.1221 C.ar      1 RES1    0.0000
     20 H1YB      10.1275    6.1091   23.5130 H         1 RES1    0.0000
     21 C3YB      11.5062    5.4211   21.3499 C.2       1 RES1    0.0000
     22 O1ID       6.9257    1.4617   21.8666 O.co2     1 RES1    0.0000
     23 O1KF      11.9238    4.9044   20.3112 O.co2     1 RES1    0.0000
     24 O1XF       8.4811    6.4598   25.3093 O.co2     1 RES1    0.0000
     25 Mn1G       0.0000    5.5622   21.2088 Mn        1 RES1    0.0000
     26 Cl1G       0.0000    3.8922   22.8788 Cl        1 RES1   -1.0000
     27 O1G        1.4617    6.9257   21.8666 O.co2     1 RES1    0.0000
     28 C1G        3.0787    8.6229   22.0084 C.ar      1 RES1    0.0000
     29 C2G        3.6489    8.0634   23.1221 C.ar      1 RES1    0.0000
     30 H1G        3.2580    7.2764   23.5130 H         1 RES1    0.0000
     31 C3G        1.8793    7.9644   21.3499 C.2       1 RES1    0.0000
     32 O1UB       6.4598    8.4811   25.3093 O.co2     1 RES1    0.0000
     33 C1UB       4.7626    8.6229   23.6923 C.ar      1 RES1    0.0000
     34 C2UB       5.3221    9.7366   23.1221 C.ar      1 RES1    0.0000
     35 H1UB       6.1091   10.1275   23.5130 H         1 RES1    0.0000
     36 C3UB       5.4211    7.9644   24.8917 C.2       1 RES1    0.0000
     37 O1FA       4.9044   11.9238   20.3112 O.co2     1 RES1    0.0000
     38 C1FA       4.7626   10.3068   22.0084 C.ar      1 RES1    0.0000
     39 C2FA       3.6489    9.7366   21.4489 C.ar      1 RES1    0.0000
     40 H1FA       3.2580   10.1275   20.6619 H         1 RES1    0.0000
     41 C3FA       5.4211   11.5062   21.3499 C.2       1 RES1    0.0000
     42 O1ED       4.9044    6.9257   25.3093 O.co2     1 RES1    0.0000
     43 O1EG       6.4598   11.9238   21.8666 O.co2     1 RES1    0.0000
     44 O1JE       1.4617    8.4811   20.3112 O.co2     1 RES1    0.0000
     45 Mn1J       5.5622    0.0000   21.2088 Mn        1 RES1    0.0000
     46 Cl1J       3.8922    0.0000   22.8788 Cl        1 RES1   -1.0000
     47 Mn1DA      0.0000    7.8233   18.9477 Mn        1 RES1    0.0000
     48 Mn1FA      5.5622   13.3855   18.9477 Mn        1 RES1    0.0000
     49 Mn1ZA     13.3855    5.5622   18.9477 Mn        1 RES1    0.0000
     50 Mn1GB      7.8233    0.0000   18.9477 Mn        1 RES1    0.0000
     51 Mn1UB      7.8233    7.8233   26.7710 Mn        1 RES1    0.0000
     52 Mn1YB     13.3855    7.8233   21.2088 Mn        1 RES1    0.0000
     53 Mn1CC      7.8233   13.3855   21.2088 Mn        1 RES1    0.0000
     54 O1J        4.9044    1.4617   19.8453 O.2       1 RES1    0.0000
     55 O1L        4.9044    6.9257   28.2327 O.2       1 RES1    0.0000
     56 O1P        6.9257   -1.4617   21.8666 O.2       1 RES1    0.0000
     57 O1T       -1.4617    4.9044   19.8453 O.2       1 RES1    0.0000
     58 O1SC       6.9257    4.9044   28.2327 O.2       1 RES1    0.0000
     59 O1XC      -1.4617    6.9257   21.8666 O.2       1 RES1    0.0000
     60 O1CD       4.9044   -1.4617   19.8453 O.2       1 RES1    0.0000
     61 O1MD       1.4617    4.9044   19.8453 O.2       1 RES1    0.0000
@<TRIPOS>BOND
     1    1    2 1
     2    3    1 1
     3    4    5 ar
     4    5    6 1
     5    7    3 un
     6   12   16 un
     7   13    5 ar
     8   14   13 ar
     9   15   14 1
    10   16   13 1
    11   17   21 un
    12   18   14 ar
    13   19    4 ar
    14   20   19 1
    15   21   18 1
    16   22   16 un
    17   23   21 un
    18   24    7 un
    19   25   26 1
    20   27   25 1
    21   28   29 ar
    22   29   30 1
    23   31   27 un
    24   32   36 un
    25   33   29 ar
    26   34   33 ar
    27   35   34 1
    28   36   33 1
    29   37   41 un
    30   38   34 ar
    31   39   28 ar
    32   40   39 1
    33   41   38 1
    34   42    1 1
    35   43   41 un
    36   44   31 un
    37   45   22 1
    38   46   45 1
    39   47   44 un
    40   48   37 un
    41   49   23 un
    42   50   12 un
    43   51   24 un
    44   52   17 un
    45   53   43 un
    46   54   45 un
    47   55    1 un
    48   56   45 un
    49   57   25 un
    50   58    1 un
    51   59   25 un
    52   60   45 un
    53   61   25 un
    54    4    7 1
    55   18   19 ar
    56   28   31 1
    57   32   51 un
    58   36   42 un
    59   38   39 ar
@<TRIPOS>SUBSTRUCTURE
     1 RES1 1
     2 RES2 8
     3 RES3 9
     4 SUP4 10

# MOL2 file generated by ConQuest
# Please check atom types

@<TRIPOS>MOLECULE
ABAYOS
    27    28     1
SMALL
NO_CHARGES
****
Generated from CSD

@<TRIPOS>ATOM
      1 Ag1        3.5349    1.8923    0.3501 Ag        1 RES1    0.0000
      2 Ag2        4.8068    6.4844    2.2757 Ag        1 RES1    0.0000
      3 O1         3.9492    4.2142    0.9230 O.co2     1 RES1    0.0000
      4 O2         3.5444    6.2953    0.3094 O.co2     1 RES1    0.0000
      5 O3         2.9731    7.4878   -2.4517 O.co2     1 RES1    0.0000
      6 O4         1.1844    7.6600   -1.1322 O.co2     1 RES1    0.0000
      7 N1         2.4166    3.2866   -1.1440 N.ar      1 RES1    0.0000
      8 N2         1.0976    5.0525   -2.8119 N.ar      1 RES1    0.0000
      9 O5         4.5492    0.3558    1.6131 O.3       1 RES1    0.0000
     10 H1         3.9899    0.0959    2.2683 H         1 RES1    0.0000
     11 H2         5.2913    0.7132    1.9767 H         1 RES1    0.0000
     12 C1         3.4504    5.0623    0.1636 C.2       1 RES1    0.0000
     13 C2         2.5772    4.5992   -0.9811 C.ar      1 RES1    0.0000
     14 C3         1.6009    2.8284   -2.1324 C.ar      1 RES1    0.0000
     15 H3         1.4910    1.8829   -2.2656 H         1 RES1    0.0000
     16 C4         0.9402    3.7252   -2.9392 C.ar      1 RES1    0.0000
     17 H4         0.3425    3.3938   -3.6129 H         1 RES1    0.0000
     18 C5         1.9084    5.4895   -1.8328 C.ar      1 RES1    0.0000
     19 C6         2.0553    7.0069   -1.7570 C.2       1 RES1    0.0000
     20 Ag2C       6.3584    1.6386   -1.0232 Ag        1 RES1    0.0000
     21 O3C        1.4215    0.6352    0.8471 O.2       1 RES1    0.0000
     22 Ag1C       1.9833    6.2307    3.6489 Ag        1 RES1    0.0000
     23 O3B        4.7319    8.7582    2.4517 O.2       1 RES1    0.0000
     24 N2         5.6994    5.0525    3.7857 N.2       1 RES1    0.0000
     25 Ag1C       5.0865    6.2307   -2.9487 Ag        1 RES1    0.0000
     26 Ag2B       2.8982    9.7616   -2.2757 Ag        1 RES1    0.0000
     27 Ag2        0.2050    6.4844   -4.3220 Ag        1 RES1    0.0000
@<TRIPOS>BOND
     1    1    3 1
     2    2    4 1
     3    3   12 un
     4    4   12 un
     5    5   19 1
     6    6   19 2
     7    7    1 1
     8    8   16 ar
     9    9    1 1
    10   10    9 1
    11   11    9 1
    12   12   13 1
    13   13    7 ar
    14   14    7 ar
    15   15   14 1
    16   16   14 ar
    17   17   16 1
    18   18    8 ar
    19   19   18 1
    20   20    1 un
    21   21    1 un
    22   22    2 un
    23   23    2 un
    24   24    2 un
    25   25    5 un
    26   26    5 un
    27   27    8 un
    28   13   18 ar
@<TRIPOS>SUBSTRUCTURE
     1 RES1 1

@<TRIPOS>CRYSIN
   7.7050   16.2460    7.2910  90.0000 115.1900  90.0000  14 1

