@<TRIPOS>MOLECULE
00000001
    10     9     1     0     1
SMALL
NO_CHARGES
****
Generated from the CSD

@<TRIPOS>ATOM
     1 C        3.3950   0.4200   0.0000   C.2       1 UNK0   0.0000
     2 C        2.0610  -0.3500   0.0000   C.3       1 UNK0   0.0000
     3 O        4.7280  -0.3500   0.0000   O.2       1 UNK0   0.0000
     4 O        3.3950   1.9600   0.0000   O.3       1 UNK0   0.0000
     5 N        0.7270   0.4200   0.0000   N.3       1 UNK0   0.0000
     6 H1       2.0610  -0.9787   0.8892   H         1 UNK0   0.0000
     7 H2       2.0610  -0.9787  -0.8892   H         1 UNK0   0.0000
     8 H3       4.3312   2.2910   0.0000   H         1 UNK0   0.0000
     9 H4      -0.0444  -0.2397  -0.0000   H         1 UNK0   0.0000
    10 H5       0.6732   1.0035  -0.8287   H         1 UNK0   0.0000
@<TRIPOS>BOND
     1     1     2    1
     2     1     3    2
     3     1     4    1
     4     2     5    1
     5     2     6    1
     6     2     7    1
     7     4     8    1
     8     5     9    1
     9     5    10    1
@<TRIPOS>SUBSTRUCTURE
     1 UNK0        1 GROUP             0 ****  UNK     0  
@<TRIPOS>SET
CCDC_LIGAND STATIC ATOMS
10 1 2 3 4 5 6 7 8 9 \
10 
