@<TRIPOS>MOLECULE
FAWCEN03
   708   780     1     0     1
SMALL
NO_CHARGES
****
Generated from the CSD

@<TRIPOS>ATOM
     1 Zn1      0.0000   8.5047   4.2524   Zn        1 RES1   0.0000
     2 N1       0.5256  10.0424   5.3971   N.ar      1 RES1   0.0000
     3 C1      -0.1463  10.6020   6.4075   C.ar      1 RES1   0.0000
     4 C2       1.7010  10.7534   5.3189   C.ar      1 RES1   0.0000
     5 C3      -1.4832  10.1190   6.8905   C.3       1 RES1   0.0000
     6 N1       0.5256  11.6124   6.9671   N.ar      1 RES1   0.0000
     7 C2       1.7010  11.6906   6.2561   C.ar      1 RES1   0.0000
     8 N1      -0.5256   6.9671   5.3971   N.ar      1 RES1   0.0000
     9 C1       0.1463   6.4075   6.4075   C.ar      1 RES1   0.0000
    10 C2      -1.7009   6.2561   5.3189   C.ar      1 RES1   0.0000
    11 C3       1.4832   6.8905   6.8905   C.3       1 RES1   0.0000
    12 N1      -0.5256   5.3971   6.9671   N.ar      1 RES1   0.0000
    13 C2      -1.7009   5.3189   6.2561   C.ar      1 RES1   0.0000
    14 Zn1      0.0000   4.2524   8.5047   Zn        1 RES1   0.0000
    15 Zn1      0.0000  12.7571   8.5047   Zn        1 RES1   0.0000
    16 N1       1.5377   7.9792   3.1076   N.ar      1 RES1   0.0000
    17 N1      -1.5377   9.0303   3.1076   N.ar      1 RES1   0.0000
    18 Zn1     17.0095   8.5047   4.2524   Zn        1 RES1   0.0000
    19 N1      17.5351  10.0424   5.3971   N.ar      1 RES1   0.0000
    20 C1      16.8632  10.6020   6.4075   C.ar      1 RES1   0.0000
    21 C2      18.7105  10.7534   5.3189   C.ar      1 RES1   0.0000
    22 C3      15.5263  10.1190   6.8905   C.3       1 RES1   0.0000
    23 N1      17.5351  11.6124   6.9671   N.ar      1 RES1   0.0000
    24 C2      18.7105  11.6906   6.2561   C.ar      1 RES1   0.0000
    25 N1      16.4839   6.9671   5.3971   N.ar      1 RES1   0.0000
    26 C1      17.1558   6.4075   6.4075   C.ar      1 RES1   0.0000
    27 C2      15.3086   6.2561   5.3189   C.ar      1 RES1   0.0000
    28 C3      18.4927   6.8905   6.8905   C.3       1 RES1   0.0000
    29 N1      16.4839   5.3971   6.9671   N.ar      1 RES1   0.0000
    30 C2      15.3086   5.3189   6.2561   C.ar      1 RES1   0.0000
    31 Zn1     17.0095   4.2524   8.5047   Zn        1 RES1   0.0000
    32 Zn1     17.0095  12.7571   8.5047   Zn        1 RES1   0.0000
    33 N1      18.5472   7.9792   3.1076   N.ar      1 RES1   0.0000
    34 N1      15.4718   9.0303   3.1076   N.ar      1 RES1   0.0000
    35 Zn1      0.0000   8.5047  12.7571   Zn        1 RES1   0.0000
    36 N1      -0.5256  10.0424  11.6124   N.ar      1 RES1   0.0000
    37 C1       0.1463  10.6020  10.6020   C.ar      1 RES1   0.0000
    38 C2      -1.7009  10.7534  11.6906   C.ar      1 RES1   0.0000
    39 C3       1.4832  10.1190  10.1190   C.3       1 RES1   0.0000
    40 N1      -0.5256  11.6124  10.0424   N.ar      1 RES1   0.0000
    41 C2      -1.7009  11.6906  10.7534   C.ar      1 RES1   0.0000
    42 N1       0.5256   6.9671  11.6124   N.ar      1 RES1   0.0000
    43 C1      -0.1463   6.4075  10.6020   C.ar      1 RES1   0.0000
    44 C2       1.7010   6.2561  11.6906   C.ar      1 RES1   0.0000
    45 C3      -1.4832   6.8905  10.1190   C.3       1 RES1   0.0000
    46 N1       0.5256   5.3971  10.0424   N.ar      1 RES1   0.0000
    47 C2       1.7010   5.3189  10.7534   C.ar      1 RES1   0.0000
    48 N1      -1.5377   7.9792  13.9019   N.ar      1 RES1   0.0000
    49 N1       1.5377   9.0303  13.9019   N.ar      1 RES1   0.0000
    50 Zn1     17.0095   8.5047  12.7571   Zn        1 RES1   0.0000
    51 N1      16.4839  10.0424  11.6124   N.ar      1 RES1   0.0000
    52 C1      17.1558  10.6020  10.6020   C.ar      1 RES1   0.0000
    53 C2      15.3086  10.7534  11.6906   C.ar      1 RES1   0.0000
    54 C3      18.4927  10.1190  10.1190   C.3       1 RES1   0.0000
    55 N1      16.4839  11.6124  10.0424   N.ar      1 RES1   0.0000
    56 C2      15.3086  11.6906  10.7534   C.ar      1 RES1   0.0000
    57 N1      17.5351   6.9671  11.6124   N.ar      1 RES1   0.0000
    58 C1      16.8632   6.4075  10.6020   C.ar      1 RES1   0.0000
    59 C2      18.7105   6.2561  11.6906   C.ar      1 RES1   0.0000
    60 C3      15.5263   6.8905  10.1190   C.3       1 RES1   0.0000
    61 N1      17.5351   5.3971  10.0424   N.ar      1 RES1   0.0000
    62 C2      18.7105   5.3189  10.7534   C.ar      1 RES1   0.0000
    63 N1      15.4718   7.9792  13.9019   N.ar      1 RES1   0.0000
    64 N1      18.5472   9.0303  13.9019   N.ar      1 RES1   0.0000
    65 Zn1      4.2524   0.0000   8.5047   Zn        1 RES1   0.0000
    66 N1       5.3971   0.5256  10.0424   N.ar      1 RES1   0.0000
    67 C1       6.4075  -0.1463  10.6020   C.ar      1 RES1   0.0000
    68 C2       5.3189   1.7010  10.7534   C.ar      1 RES1   0.0000
    69 C3       6.8905  -1.4832  10.1190   C.3       1 RES1   0.0000
    70 N1       6.9671   0.5256  11.6124   N.ar      1 RES1   0.0000
    71 C2       6.2561   1.7010  11.6906   C.ar      1 RES1   0.0000
    72 N1       5.3971  -0.5256   6.9671   N.ar      1 RES1   0.0000
    73 C1       6.4075   0.1463   6.4075   C.ar      1 RES1   0.0000
    74 C2       5.3189  -1.7009   6.2561   C.ar      1 RES1   0.0000
    75 C3       6.8905   1.4832   6.8905   C.3       1 RES1   0.0000
    76 N1       6.9671  -0.5256   5.3971   N.ar      1 RES1   0.0000
    77 C2       6.2561  -1.7009   5.3189   C.ar      1 RES1   0.0000
    78 Zn1      8.5047   0.0000   4.2524   Zn        1 RES1   0.0000
    79 Zn1      8.5047   0.0000  12.7571   Zn        1 RES1   0.0000
    80 N1       3.1076   1.5377   7.9792   N.ar      1 RES1   0.0000
    81 N1       3.1076  -1.5377   9.0303   N.ar      1 RES1   0.0000
    82 Zn1      4.2524  17.0095   8.5047   Zn        1 RES1   0.0000
    83 N1       5.3971  17.5351  10.0424   N.ar      1 RES1   0.0000
    84 C1       6.4075  16.8632  10.6020   C.ar      1 RES1   0.0000
    85 C2       5.3189  18.7105  10.7534   C.ar      1 RES1   0.0000
    86 C3       6.8905  15.5263  10.1190   C.3       1 RES1   0.0000
    87 N1       6.9671  17.5351  11.6124   N.ar      1 RES1   0.0000
    88 C2       6.2561  18.7105  11.6906   C.ar      1 RES1   0.0000
    89 N1       5.3971  16.4839   6.9671   N.ar      1 RES1   0.0000
    90 C1       6.4075  17.1558   6.4075   C.ar      1 RES1   0.0000
    91 C2       5.3189  15.3086   6.2561   C.ar      1 RES1   0.0000
    92 C3       6.8905  18.4927   6.8905   C.3       1 RES1   0.0000
    93 N1       6.9671  16.4839   5.3971   N.ar      1 RES1   0.0000
    94 C2       6.2561  15.3086   5.3189   C.ar      1 RES1   0.0000
    95 Zn1      8.5048  17.0095   4.2524   Zn        1 RES1   0.0000
    96 Zn1      8.5048  17.0095  12.7571   Zn        1 RES1   0.0000
    97 N1       3.1076  18.5472   7.9792   N.ar      1 RES1   0.0000
    98 N1       3.1076  15.4718   9.0303   N.ar      1 RES1   0.0000
    99 Zn1     12.7571   0.0000   8.5047   Zn        1 RES1   0.0000
   100 N1      11.6124  -0.5256  10.0424   N.ar      1 RES1   0.0000
   101 C1      10.6020   0.1463  10.6020   C.ar      1 RES1   0.0000
   102 C2      11.6906  -1.7009  10.7534   C.ar      1 RES1   0.0000
   103 C3      10.1190   1.4832  10.1190   C.3       1 RES1   0.0000
   104 N1      10.0424  -0.5256  11.6124   N.ar      1 RES1   0.0000
   105 C2      10.7534  -1.7009  11.6906   C.ar      1 RES1   0.0000
   106 N1      11.6124   0.5256   6.9671   N.ar      1 RES1   0.0000
   107 C1      10.6020  -0.1463   6.4075   C.ar      1 RES1   0.0000
   108 C2      11.6906   1.7010   6.2561   C.ar      1 RES1   0.0000
   109 C3      10.1190  -1.4832   6.8905   C.3       1 RES1   0.0000
   110 N1      10.0424   0.5256   5.3971   N.ar      1 RES1   0.0000
   111 C2      10.7534   1.7010   5.3189   C.ar      1 RES1   0.0000
   112 N1      13.9019  -1.5377   7.9792   N.ar      1 RES1   0.0000
   113 N1      13.9019   1.5377   9.0303   N.ar      1 RES1   0.0000
   114 Zn1     12.7571  17.0095   8.5047   Zn        1 RES1   0.0000
   115 N1      11.6124  16.4839  10.0424   N.ar      1 RES1   0.0000
   116 C1      10.6020  17.1558  10.6020   C.ar      1 RES1   0.0000
   117 C2      11.6906  15.3086  10.7534   C.ar      1 RES1   0.0000
   118 C3      10.1190  18.4927  10.1190   C.3       1 RES1   0.0000
   119 N1      10.0424  16.4839  11.6124   N.ar      1 RES1   0.0000
   120 C2      10.7534  15.3086  11.6906   C.ar      1 RES1   0.0000
   121 N1      11.6124  17.5351   6.9671   N.ar      1 RES1   0.0000
   122 C1      10.6020  16.8632   6.4075   C.ar      1 RES1   0.0000
   123 C2      11.6906  18.7105   6.2561   C.ar      1 RES1   0.0000
   124 C3      10.1190  15.5263   6.8905   C.3       1 RES1   0.0000
   125 N1      10.0424  17.5351   5.3971   N.ar      1 RES1   0.0000
   126 C2      10.7534  18.7105   5.3189   C.ar      1 RES1   0.0000
   127 N1      13.9019  15.4718   7.9792   N.ar      1 RES1   0.0000
   128 N1      13.9019  18.5472   9.0303   N.ar      1 RES1   0.0000
   129 Zn1      8.5047   4.2524   0.0000   Zn        1 RES1   0.0000
   130 N1      10.0424   5.3971   0.5256   N.ar      1 RES1   0.0000
   131 C1      10.6020   6.4075  -0.1463   C.ar      1 RES1   0.0000
   132 C2      10.7534   5.3189   1.7009   C.ar      1 RES1   0.0000
   133 C3      10.1190   6.8905  -1.4832   C.3       1 RES1   0.0000
   134 N1      11.6124   6.9671   0.5256   N.ar      1 RES1   0.0000
   135 C2      11.6906   6.2561   1.7009   C.ar      1 RES1   0.0000
   136 N1       6.9671   5.3971  -0.5256   N.ar      1 RES1   0.0000
   137 C1       6.4075   6.4075   0.1463   C.ar      1 RES1   0.0000
   138 C2       6.2561   5.3189  -1.7009   C.ar      1 RES1   0.0000
   139 C3       6.8905   6.8905   1.4832   C.3       1 RES1   0.0000
   140 N1       5.3971   6.9671  -0.5256   N.ar      1 RES1   0.0000
   141 C2       5.3189   6.2561  -1.7009   C.ar      1 RES1   0.0000
   142 Zn1      4.2524   8.5047   0.0000   Zn        1 RES1   0.0000
   143 Zn1     12.7571   8.5047   0.0000   Zn        1 RES1   0.0000
   144 N1       7.9792   3.1076   1.5377   N.ar      1 RES1   0.0000
   145 N1       9.0303   3.1076  -1.5377   N.ar      1 RES1   0.0000
   146 Zn1      8.5048   4.2524  17.0095   Zn        1 RES1   0.0000
   147 N1      10.0424   5.3971  17.5351   N.ar      1 RES1   0.0000
   148 C1      10.6020   6.4075  16.8632   C.ar      1 RES1   0.0000
   149 C2      10.7534   5.3189  18.7105   C.ar      1 RES1   0.0000
   150 C3      10.1190   6.8905  15.5263   C.3       1 RES1   0.0000
   151 N1      11.6124   6.9671  17.5351   N.ar      1 RES1   0.0000
   152 C2      11.6906   6.2561  18.7105   C.ar      1 RES1   0.0000
   153 N1       6.9671   5.3971  16.4839   N.ar      1 RES1   0.0000
   154 C1       6.4075   6.4075  17.1558   C.ar      1 RES1   0.0000
   155 C2       6.2561   5.3189  15.3086   C.ar      1 RES1   0.0000
   156 C3       6.8905   6.8905  18.4927   C.3       1 RES1   0.0000
   157 N1       5.3971   6.9671  16.4839   N.ar      1 RES1   0.0000
   158 C2       5.3189   6.2561  15.3086   C.ar      1 RES1   0.0000
   159 Zn1      4.2524   8.5048  17.0095   Zn        1 RES1   0.0000
   160 Zn1     12.7571   8.5048  17.0095   Zn        1 RES1   0.0000
   161 N1       7.9792   3.1076  18.5472   N.ar      1 RES1   0.0000
   162 N1       9.0303   3.1076  15.4718   N.ar      1 RES1   0.0000
   163 Zn1      8.5047  12.7571   0.0000   Zn        1 RES1   0.0000
   164 N1      10.0424  11.6124  -0.5256   N.ar      1 RES1   0.0000
   165 C1      10.6020  10.6020   0.1463   C.ar      1 RES1   0.0000
   166 C2      10.7534  11.6906  -1.7009   C.ar      1 RES1   0.0000
   167 C3      10.1190  10.1190   1.4832   C.3       1 RES1   0.0000
   168 N1      11.6124  10.0424  -0.5256   N.ar      1 RES1   0.0000
   169 C2      11.6906  10.7534  -1.7009   C.ar      1 RES1   0.0000
   170 N1       6.9671  11.6124   0.5256   N.ar      1 RES1   0.0000
   171 C1       6.4075  10.6020  -0.1463   C.ar      1 RES1   0.0000
   172 C2       6.2561  11.6906   1.7009   C.ar      1 RES1   0.0000
   173 C3       6.8905  10.1190  -1.4832   C.3       1 RES1   0.0000
   174 N1       5.3971  10.0424   0.5256   N.ar      1 RES1   0.0000
   175 C2       5.3189  10.7534   1.7009   C.ar      1 RES1   0.0000
   176 N1       7.9792  13.9019  -1.5377   N.ar      1 RES1   0.0000
   177 N1       9.0303  13.9019   1.5377   N.ar      1 RES1   0.0000
   178 Zn1      8.5048  12.7571  17.0095   Zn        1 RES1   0.0000
   179 N1      10.0424  11.6124  16.4839   N.ar      1 RES1   0.0000
   180 C1      10.6020  10.6020  17.1558   C.ar      1 RES1   0.0000
   181 C2      10.7534  11.6906  15.3086   C.ar      1 RES1   0.0000
   182 C3      10.1190  10.1190  18.4927   C.3       1 RES1   0.0000
   183 N1      11.6124  10.0424  16.4839   N.ar      1 RES1   0.0000
   184 C2      11.6906  10.7534  15.3086   C.ar      1 RES1   0.0000
   185 N1       6.9671  11.6124  17.5351   N.ar      1 RES1   0.0000
   186 C1       6.4075  10.6020  16.8632   C.ar      1 RES1   0.0000
   187 C2       6.2561  11.6906  18.7105   C.ar      1 RES1   0.0000
   188 C3       6.8905  10.1190  15.5263   C.3       1 RES1   0.0000
   189 N1       5.3971  10.0424  17.5351   N.ar      1 RES1   0.0000
   190 C2       5.3189  10.7534  18.7105   C.ar      1 RES1   0.0000
   191 N1       7.9792  13.9019  15.4718   N.ar      1 RES1   0.0000
   192 N1       9.0303  13.9019  18.5472   N.ar      1 RES1   0.0000
   193 N1       7.9792   1.5377   3.1076   N.ar      1 RES1   0.0000
   194 N1       9.0303  -1.5377   3.1076   N.ar      1 RES1   0.0000
   195 N1       7.9792  18.5472   3.1076   N.ar      1 RES1   0.0000
   196 N1       9.0303  15.4718   3.1076   N.ar      1 RES1   0.0000
   197 N1       7.9792  -1.5377  13.9019   N.ar      1 RES1   0.0000
   198 N1       9.0303   1.5377  13.9019   N.ar      1 RES1   0.0000
   199 N1       7.9792  15.4718  13.9019   N.ar      1 RES1   0.0000
   200 N1       9.0303  18.5472  13.9019   N.ar      1 RES1   0.0000
   201 N1       1.5377   3.1076   7.9792   N.ar      1 RES1   0.0000
   202 N1      -1.5377   3.1076   9.0303   N.ar      1 RES1   0.0000
   203 N1      18.5472   3.1076   7.9792   N.ar      1 RES1   0.0000
   204 N1      15.4718   3.1076   9.0303   N.ar      1 RES1   0.0000
   205 N1      -1.5377  13.9019   7.9792   N.ar      1 RES1   0.0000
   206 N1       1.5377  13.9019   9.0303   N.ar      1 RES1   0.0000
   207 N1      15.4718  13.9019   7.9792   N.ar      1 RES1   0.0000
   208 N1      18.5472  13.9019   9.0303   N.ar      1 RES1   0.0000
   209 N1       3.1076   7.9792   1.5377   N.ar      1 RES1   0.0000
   210 N1       3.1076   9.0303  -1.5377   N.ar      1 RES1   0.0000
   211 N1       3.1076   7.9792  18.5472   N.ar      1 RES1   0.0000
   212 N1       3.1076   9.0303  15.4718   N.ar      1 RES1   0.0000
   213 N1      13.9019   7.9792  -1.5377   N.ar      1 RES1   0.0000
   214 N1      13.9019   9.0303   1.5377   N.ar      1 RES1   0.0000
   215 N1      13.9019   7.9792  15.4718   N.ar      1 RES1   0.0000
   216 N1      13.9019   9.0303  18.5472   N.ar      1 RES1   0.0000
   217 C1       8.3585   2.0973  14.9122   C.ar      1 RES1   0.0000
   218 C2      10.2057   2.2487  13.8236   C.ar      1 RES1   0.0000
   219 C3       7.0215   1.6142  15.3953   C.3       1 RES1   0.0000
   220 C2      10.2057   3.1859  14.7608   C.ar      1 RES1   0.0000
   221 C1       8.6510  -2.0973  14.9122   C.ar      1 RES1   0.0000
   222 C2       6.8038  -2.2487  13.8236   C.ar      1 RES1   0.0000
   223 C3       9.9880  -1.6142  15.3953   C.3       1 RES1   0.0000
   224 N1       7.9792  -3.1076  15.4718   N.ar      1 RES1   0.0000
   225 C2       6.8038  -3.1859  14.7608   C.ar      1 RES1   0.0000
   226 Zn1      8.5048  -4.2524  17.0095   Zn        1 RES1   0.0000
   227 C1       8.3585  19.1068  14.9122   C.ar      1 RES1   0.0000
   228 C2      10.2057  19.2582  13.8236   C.ar      1 RES1   0.0000
   229 C3       7.0215  18.6237  15.3953   C.3       1 RES1   0.0000
   230 N1       9.0303  20.1171  15.4718   N.ar      1 RES1   0.0000
   231 C2      10.2057  20.1954  14.7608   C.ar      1 RES1   0.0000
   232 C1       8.6510  14.9122  14.9122   C.ar      1 RES1   0.0000
   233 C2       6.8038  14.7608  13.8236   C.ar      1 RES1   0.0000
   234 C3       9.9880  15.3953  15.3953   C.3       1 RES1   0.0000
   235 C2       6.8038  13.8236  14.7608   C.ar      1 RES1   0.0000
   236 Zn1      8.5048  21.2619  17.0095   Zn        1 RES1   0.0000
   237 C1       8.6510   2.0973   2.0973   C.ar      1 RES1   0.0000
   238 C2       6.8038   2.2487   3.1859   C.ar      1 RES1   0.0000
   239 C3       9.9880   1.6142   1.6142   C.3       1 RES1   0.0000
   240 C2       6.8038   3.1859   2.2487   C.ar      1 RES1   0.0000
   241 C1       8.3585  -2.0973   2.0973   C.ar      1 RES1   0.0000
   242 C2      10.2057  -2.2487   3.1859   C.ar      1 RES1   0.0000
   243 C3       7.0215  -1.6142   1.6142   C.3       1 RES1   0.0000
   244 N1       9.0303  -3.1076   1.5377   N.ar      1 RES1   0.0000
   245 C2      10.2057  -3.1859   2.2487   C.ar      1 RES1   0.0000
   246 Zn1      8.5047  -4.2524   0.0000   Zn        1 RES1   0.0000
   247 C1       8.6510  19.1068   2.0973   C.ar      1 RES1   0.0000
   248 C2       6.8038  19.2582   3.1859   C.ar      1 RES1   0.0000
   249 C3       9.9880  18.6237   1.6142   C.3       1 RES1   0.0000
   250 N1       7.9792  20.1171   1.5377   N.ar      1 RES1   0.0000
   251 C2       6.8038  20.1954   2.2487   C.ar      1 RES1   0.0000
   252 C1       8.3585  14.9122   2.0973   C.ar      1 RES1   0.0000
   253 C2      10.2057  14.7608   3.1859   C.ar      1 RES1   0.0000
   254 C3       7.0215  15.3953   1.6142   C.3       1 RES1   0.0000
   255 C2      10.2057  13.8236   2.2487   C.ar      1 RES1   0.0000
   256 Zn1      8.5048  21.2619   0.0000   Zn        1 RES1   0.0000
   257 C1      14.9122   8.3585   2.0973   C.ar      1 RES1   0.0000
   258 C2      13.8236  10.2057   2.2487   C.ar      1 RES1   0.0000
   259 C3      15.3953   7.0215   1.6142   C.3       1 RES1   0.0000
   260 C2      14.7608  10.2057   3.1859   C.ar      1 RES1   0.0000
   261 C1      14.9122   8.6510  -2.0973   C.ar      1 RES1   0.0000
   262 C2      13.8236   6.8038  -2.2487   C.ar      1 RES1   0.0000
   263 C3      15.3953   9.9880  -1.6142   C.3       1 RES1   0.0000
   264 N1      15.4718   7.9792  -3.1076   N.ar      1 RES1   0.0000
   265 C2      14.7608   6.8038  -3.1859   C.ar      1 RES1   0.0000
   266 Zn1     17.0095   8.5047  -4.2524   Zn        1 RES1   0.0000
   267 C1      14.9122   8.3585  19.1068   C.ar      1 RES1   0.0000
   268 C2      13.8236  10.2057  19.2582   C.ar      1 RES1   0.0000
   269 C3      15.3953   7.0215  18.6237   C.3       1 RES1   0.0000
   270 N1      15.4718   9.0303  20.1171   N.ar      1 RES1   0.0000
   271 C2      14.7608  10.2057  20.1954   C.ar      1 RES1   0.0000
   272 C1      14.9122   8.6510  14.9122   C.ar      1 RES1   0.0000
   273 C2      13.8236   6.8038  14.7608   C.ar      1 RES1   0.0000
   274 C3      15.3953   9.9880  15.3953   C.3       1 RES1   0.0000
   275 C2      14.7608   6.8038  13.8236   C.ar      1 RES1   0.0000
   276 Zn1     17.0095   8.5048  21.2619   Zn        1 RES1   0.0000
   277 C1       2.0973   8.6510   2.0973   C.ar      1 RES1   0.0000
   278 C2       3.1859   6.8038   2.2487   C.ar      1 RES1   0.0000
   279 C3       1.6142   9.9880   1.6142   C.3       1 RES1   0.0000
   280 C2       2.2487   6.8038   3.1859   C.ar      1 RES1   0.0000
   281 C1       2.0973   8.3585  -2.0973   C.ar      1 RES1   0.0000
   282 C2       3.1859  10.2057  -2.2487   C.ar      1 RES1   0.0000
   283 C3       1.6142   7.0215  -1.6142   C.3       1 RES1   0.0000
   284 N1       1.5377   9.0303  -3.1076   N.ar      1 RES1   0.0000
   285 C2       2.2487  10.2057  -3.1859   C.ar      1 RES1   0.0000
   286 Zn1      0.0000   8.5047  -4.2524   Zn        1 RES1   0.0000
   287 C1       2.0973   8.6510  19.1068   C.ar      1 RES1   0.0000
   288 C2       3.1859   6.8038  19.2582   C.ar      1 RES1   0.0000
   289 C3       1.6142   9.9880  18.6237   C.3       1 RES1   0.0000
   290 N1       1.5377   7.9792  20.1171   N.ar      1 RES1   0.0000
   291 C2       2.2487   6.8038  20.1954   C.ar      1 RES1   0.0000
   292 C1       2.0973   8.3585  14.9122   C.ar      1 RES1   0.0000
   293 C2       3.1859  10.2057  14.7608   C.ar      1 RES1   0.0000
   294 C3       1.6142   7.0215  15.3953   C.3       1 RES1   0.0000
   295 C2       2.2487  10.2057  13.8236   C.ar      1 RES1   0.0000
   296 Zn1      0.0000   8.5048  21.2619   Zn        1 RES1   0.0000
   297 C1       2.0973  14.9122   8.3585   C.ar      1 RES1   0.0000
   298 C2       2.2487  13.8236  10.2057   C.ar      1 RES1   0.0000
   299 C3       1.6142  15.3953   7.0215   C.3       1 RES1   0.0000
   300 C2       3.1859  14.7608  10.2057   C.ar      1 RES1   0.0000
   301 C1      -2.0973  14.9122   8.6510   C.ar      1 RES1   0.0000
   302 C2      -2.2487  13.8236   6.8038   C.ar      1 RES1   0.0000
   303 C3      -1.6142  15.3953   9.9880   C.3       1 RES1   0.0000
   304 N1      -3.1076  15.4718   7.9792   N.ar      1 RES1   0.0000
   305 C2      -3.1859  14.7608   6.8038   C.ar      1 RES1   0.0000
   306 Zn1     -4.2524  17.0095   8.5047   Zn        1 RES1   0.0000
   307 C1      19.1068  14.9122   8.3585   C.ar      1 RES1   0.0000
   308 C2      19.2582  13.8236  10.2057   C.ar      1 RES1   0.0000
   309 C3      18.6237  15.3953   7.0215   C.3       1 RES1   0.0000
   310 N1      20.1171  15.4718   9.0303   N.ar      1 RES1   0.0000
   311 C2      20.1954  14.7608  10.2057   C.ar      1 RES1   0.0000
   312 C1      14.9122  14.9122   8.6510   C.ar      1 RES1   0.0000
   313 C2      14.7608  13.8236   6.8038   C.ar      1 RES1   0.0000
   314 C3      15.3953  15.3953   9.9880   C.3       1 RES1   0.0000
   315 C2      13.8236  14.7608   6.8038   C.ar      1 RES1   0.0000
   316 Zn1     21.2619  17.0095   8.5047   Zn        1 RES1   0.0000
   317 C1       2.0973   2.0973   8.6510   C.ar      1 RES1   0.0000
   318 C2       2.2487   3.1859   6.8038   C.ar      1 RES1   0.0000
   319 C3       1.6142   1.6142   9.9880   C.3       1 RES1   0.0000
   320 C2       3.1859   2.2487   6.8038   C.ar      1 RES1   0.0000
   321 C1      -2.0973   2.0973   8.3585   C.ar      1 RES1   0.0000
   322 C2      -2.2487   3.1859  10.2057   C.ar      1 RES1   0.0000
   323 C3      -1.6142   1.6142   7.0215   C.3       1 RES1   0.0000
   324 N1      -3.1076   1.5377   9.0303   N.ar      1 RES1   0.0000
   325 C2      -3.1859   2.2487  10.2057   C.ar      1 RES1   0.0000
   326 Zn1     -4.2524   0.0000   8.5047   Zn        1 RES1   0.0000
   327 C1      19.1068   2.0973   8.6510   C.ar      1 RES1   0.0000
   328 C2      19.2582   3.1859   6.8038   C.ar      1 RES1   0.0000
   329 C3      18.6237   1.6142   9.9880   C.3       1 RES1   0.0000
   330 N1      20.1171   1.5377   7.9792   N.ar      1 RES1   0.0000
   331 C2      20.1954   2.2487   6.8038   C.ar      1 RES1   0.0000
   332 C1      14.9122   2.0973   8.3585   C.ar      1 RES1   0.0000
   333 C2      14.7608   3.1859  10.2057   C.ar      1 RES1   0.0000
   334 C3      15.3953   1.6142   7.0215   C.3       1 RES1   0.0000
   335 C2      13.8236   2.2487  10.2057   C.ar      1 RES1   0.0000
   336 Zn1     21.2619   0.0000   8.5047   Zn        1 RES1   0.0000
   337 C1      -2.0973   8.6510  14.9122   C.ar      1 RES1   0.0000
   338 C2      -2.2487   6.8038  13.8236   C.ar      1 RES1   0.0000
   339 C3      -1.6142   9.9880  15.3953   C.3       1 RES1   0.0000
   340 N1      -3.1076   7.9792  15.4718   N.ar      1 RES1   0.0000
   341 C2      -3.1859   6.8038  14.7608   C.ar      1 RES1   0.0000
   342 Zn1     -4.2524   8.5048  17.0095   Zn        1 RES1   0.0000
   343 C1      19.1068   8.3585  14.9122   C.ar      1 RES1   0.0000
   344 C2      19.2582  10.2057  13.8236   C.ar      1 RES1   0.0000
   345 C3      18.6237   7.0215  15.3953   C.3       1 RES1   0.0000
   346 N1      20.1171   9.0303  15.4718   N.ar      1 RES1   0.0000
   347 C2      20.1954  10.2057  14.7608   C.ar      1 RES1   0.0000
   348 Zn1     21.2619   8.5048  17.0095   Zn        1 RES1   0.0000
   349 C1      -2.0973   8.3585   2.0973   C.ar      1 RES1   0.0000
   350 C2      -2.2487  10.2057   3.1859   C.ar      1 RES1   0.0000
   351 C3      -1.6142   7.0215   1.6142   C.3       1 RES1   0.0000
   352 N1      -3.1076   9.0303   1.5377   N.ar      1 RES1   0.0000
   353 C2      -3.1859  10.2057   2.2487   C.ar      1 RES1   0.0000
   354 Zn1     -4.2524   8.5047   0.0000   Zn        1 RES1   0.0000
   355 C1      19.1068   8.6510   2.0973   C.ar      1 RES1   0.0000
   356 C2      19.2582   6.8038   3.1859   C.ar      1 RES1   0.0000
   357 C3      18.6237   9.9880   1.6142   C.3       1 RES1   0.0000
   358 N1      20.1171   7.9792   1.5377   N.ar      1 RES1   0.0000
   359 C2      20.1954   6.8038   2.2487   C.ar      1 RES1   0.0000
   360 Zn1     21.2619   8.5047   0.0000   Zn        1 RES1   0.0000
   361 C1       8.6510  14.9122  -2.0973   C.ar      1 RES1   0.0000
   362 C2       6.8038  13.8236  -2.2487   C.ar      1 RES1   0.0000
   363 C3       9.9880  15.3953  -1.6142   C.3       1 RES1   0.0000
   364 N1       7.9792  15.4718  -3.1076   N.ar      1 RES1   0.0000
   365 C2       6.8038  14.7608  -3.1859   C.ar      1 RES1   0.0000
   366 Zn1      8.5048  17.0095  -4.2524   Zn        1 RES1   0.0000
   367 C1       8.3585  14.9122  19.1068   C.ar      1 RES1   0.0000
   368 C2      10.2057  13.8236  19.2582   C.ar      1 RES1   0.0000
   369 C3       7.0215  15.3953  18.6237   C.3       1 RES1   0.0000
   370 N1       9.0303  15.4718  20.1171   N.ar      1 RES1   0.0000
   371 C2      10.2057  14.7608  20.1954   C.ar      1 RES1   0.0000
   372 Zn1      8.5048  17.0095  21.2619   Zn        1 RES1   0.0000
   373 C1       8.3585   2.0973  -2.0973   C.ar      1 RES1   0.0000
   374 C2      10.2057   3.1859  -2.2487   C.ar      1 RES1   0.0000
   375 C3       7.0215   1.6142  -1.6142   C.3       1 RES1   0.0000
   376 N1       9.0303   1.5377  -3.1076   N.ar      1 RES1   0.0000
   377 C2      10.2057   2.2487  -3.1859   C.ar      1 RES1   0.0000
   378 Zn1      8.5047   0.0000  -4.2524   Zn        1 RES1   0.0000
   379 C1       8.6510   2.0973  19.1068   C.ar      1 RES1   0.0000
   380 C2       6.8038   3.1859  19.2582   C.ar      1 RES1   0.0000
   381 C3       9.9880   1.6142  18.6237   C.3       1 RES1   0.0000
   382 N1       7.9792   1.5377  20.1171   N.ar      1 RES1   0.0000
   383 C2       6.8038   2.2487  20.1954   C.ar      1 RES1   0.0000
   384 Zn1      8.5048   0.0000  21.2619   Zn        1 RES1   0.0000
   385 C1      14.9122  -2.0973   8.6510   C.ar      1 RES1   0.0000
   386 C2      13.8236  -2.2487   6.8038   C.ar      1 RES1   0.0000
   387 C3      15.3953  -1.6142   9.9880   C.3       1 RES1   0.0000
   388 N1      15.4718  -3.1076   7.9792   N.ar      1 RES1   0.0000
   389 C2      14.7608  -3.1859   6.8038   C.ar      1 RES1   0.0000
   390 Zn1     17.0095  -4.2524   8.5047   Zn        1 RES1   0.0000
   391 C1      14.9122  19.1068   8.3585   C.ar      1 RES1   0.0000
   392 C2      13.8236  19.2582  10.2057   C.ar      1 RES1   0.0000
   393 C3      15.3953  18.6237   7.0215   C.3       1 RES1   0.0000
   394 N1      15.4718  20.1171   9.0303   N.ar      1 RES1   0.0000
   395 C2      14.7608  20.1954  10.2057   C.ar      1 RES1   0.0000
   396 Zn1     17.0095  21.2619   8.5047   Zn        1 RES1   0.0000
   397 C1       2.0973  -2.0973   8.3585   C.ar      1 RES1   0.0000
   398 C2       3.1859  -2.2487  10.2057   C.ar      1 RES1   0.0000
   399 C3       1.6142  -1.6142   7.0215   C.3       1 RES1   0.0000
   400 N1       1.5377  -3.1076   9.0303   N.ar      1 RES1   0.0000
   401 C2       2.2487  -3.1859  10.2057   C.ar      1 RES1   0.0000
   402 Zn1      0.0000  -4.2524   8.5047   Zn        1 RES1   0.0000
   403 C1       2.0973  19.1068   8.6510   C.ar      1 RES1   0.0000
   404 C2       3.1859  19.2582   6.8038   C.ar      1 RES1   0.0000
   405 C3       1.6142  18.6237   9.9880   C.3       1 RES1   0.0000
   406 N1       1.5377  20.1171   7.9792   N.ar      1 RES1   0.0000
   407 C2       2.2487  20.1954   6.8038   C.ar      1 RES1   0.0000
   408 Zn1      0.0000  21.2619   8.5047   Zn        1 RES1   0.0000
   409 H1       6.6890  16.2252   2.2360   H         1 RES1   0.0000
   410 H2       6.2983  14.5834   1.6755   H         1 RES1   0.0000
   411 H3       7.1074  15.7277   0.5807   H         1 RES1   0.0000
   412 H4      11.0064  13.1074   2.0703   H         1 RES1   0.0000
   413 H5       6.0031  20.9116   2.0703   H         1 RES1   0.0000
   414 H6      11.0064  14.9392   3.9021   H         1 RES1   0.0000
   415 H7       6.6890  19.2455  16.2252   H         1 RES1   0.0000
   416 H8       7.1074  17.5902  15.7277   H         1 RES1   0.0000
   417 H9       6.2983  18.6850  14.5834   H         1 RES1   0.0000
   418 H10      6.0031  13.1074  14.9392   H         1 RES1   0.0000
   419 H11     10.3205   0.7843   2.2360   H         1 RES1   0.0000
   420 H12     10.7112   2.4261   1.6755   H         1 RES1   0.0000
   421 H13      9.9021   1.2818   0.5807   H         1 RES1   0.0000
   422 H14     11.0064  19.0798  13.1074   H         1 RES1   0.0000
   423 H15      6.0031   3.9021   2.0703   H         1 RES1   0.0000
   424 H16     11.0064  -2.0703   3.9021   H         1 RES1   0.0000
   425 H17     11.0064  -3.9021   2.0703   H         1 RES1   0.0000
   426 H18      6.0031  19.0798   3.9021   H         1 RES1   0.0000
   427 H19      6.6890  -2.2360   0.7843   H         1 RES1   0.0000
   428 H20      7.1074  -0.5807   1.2818   H         1 RES1   0.0000
   429 H21      6.2983  -1.6755   2.4261   H         1 RES1   0.0000
   430 H22     10.3205  19.2455   0.7843   H         1 RES1   0.0000
   431 H23      9.9021  17.5902   1.2818   H         1 RES1   0.0000
   432 H24     10.7112  18.6850   2.4261   H         1 RES1   0.0000
   433 H25      6.0031   2.0703   3.9021   H         1 RES1   0.0000
   434 H26      6.0031  -3.9021  14.9392   H         1 RES1   0.0000
   435 H27     11.0064  20.9116  14.9392   H         1 RES1   0.0000
   436 H28      6.0031  14.9392  13.1074   H         1 RES1   0.0000
   437 H29     10.3205  16.2252  14.7735   H         1 RES1   0.0000
   438 H30     10.7112  14.5834  15.3340   H         1 RES1   0.0000
   439 H31      9.9021  15.7277  16.4288   H         1 RES1   0.0000
   440 H32     10.7408   9.2891   1.8156   H         1 RES1   0.0000
   441 H33      9.0855   9.7866   1.3974   H         1 RES1   0.0000
   442 H34     10.1803  10.9309   2.2063   H         1 RES1   0.0000
   443 H35      4.6028   6.4345  14.5078   H         1 RES1   0.0000
   444 H36     10.7408   9.2891  18.8251   H         1 RES1   0.0000
   445 H37      9.0855   9.7866  18.4069   H         1 RES1   0.0000
   446 H38     10.1803  10.9309  19.2158   H         1 RES1   0.0000
   447 H39      6.2687   9.2891  -1.8156   H         1 RES1   0.0000
   448 H40      7.9240   9.7866  -1.3974   H         1 RES1   0.0000
   449 H41      6.8292  10.9309  -2.2063   H         1 RES1   0.0000
   450 H42     10.7408   7.7204  15.1939   H         1 RES1   0.0000
   451 H43      9.0855   7.2229  15.6121   H         1 RES1   0.0000
   452 H44     10.1803   6.0786  14.8032   H         1 RES1   0.0000
   453 H45      6.2687   7.7204  18.8251   H         1 RES1   0.0000
   454 H46      7.9240   7.2229  18.4069   H         1 RES1   0.0000
   455 H47      6.8292   6.0786  19.2158   H         1 RES1   0.0000
   456 H48     12.4067  10.5750  -2.5017   H         1 RES1   0.0000
   457 H49      4.6028  10.5750   2.5017   H         1 RES1   0.0000
   458 H50     10.5750  12.4067  14.5078   H         1 RES1   0.0000
   459 H51     10.5750  12.4067  -2.5017   H         1 RES1   0.0000
   460 H52      6.4346  12.4067  19.5113   H         1 RES1   0.0000
   461 H53     12.4067   6.4346  19.5113   H         1 RES1   0.0000
   462 H54      6.4345  12.4067   2.5017   H         1 RES1   0.0000
   463 H55      6.2687   9.2891  15.1939   H         1 RES1   0.0000
   464 H56      7.9240   9.7866  15.6121   H         1 RES1   0.0000
   465 H57      6.8292  10.9309  14.8032   H         1 RES1   0.0000
   466 H58      4.6028  10.5749  19.5113   H         1 RES1   0.0000
   467 H59     12.4067  10.5750  14.5078   H         1 RES1   0.0000
   468 H60      6.4345   4.6028  14.5078   H         1 RES1   0.0000
   469 H61     10.5749   4.6028  19.5113   H         1 RES1   0.0000
   470 H62      6.6890   0.7843  14.7735   H         1 RES1   0.0000
   471 H63      6.2983   2.4261  15.3340   H         1 RES1   0.0000
   472 H64      7.1074   1.2818  16.4288   H         1 RES1   0.0000
   473 H65     10.3205  -2.2360  16.2252   H         1 RES1   0.0000
   474 H66      9.9021  -0.5807  15.7277   H         1 RES1   0.0000
   475 H67     10.7112  -1.6755  14.5834   H         1 RES1   0.0000
   476 H68     11.0064   2.0703  13.1074   H         1 RES1   0.0000
   477 H69     11.0064   3.9021  14.9392   H         1 RES1   0.0000
   478 H70      6.0031  -2.0703  13.1074   H         1 RES1   0.0000
   479 H71     19.5113  12.4067   6.4346   H         1 RES1   0.0000
   480 H72     15.1939  10.7408   7.7204   H         1 RES1   0.0000
   481 H73     15.6121   9.0855   7.2229   H         1 RES1   0.0000
   482 H74     14.8032  10.1803   6.0786   H         1 RES1   0.0000
   483 H75     18.8251   6.2687   7.7204   H         1 RES1   0.0000
   484 H76     18.4069   7.9240   7.2229   H         1 RES1   0.0000
   485 H77     19.2158   6.8292   6.0786   H         1 RES1   0.0000
   486 H78     -1.8156  10.7408   7.7204   H         1 RES1   0.0000
   487 H79     -1.3974   9.0855   7.2229   H         1 RES1   0.0000
   488 H80     -2.2063  10.1803   6.0786   H         1 RES1   0.0000
   489 H81     -2.5017   6.4345   4.6028   H         1 RES1   0.0000
   490 H82      1.8156   6.2687   7.7204   H         1 RES1   0.0000
   491 H83      1.3974   7.9240   7.2229   H         1 RES1   0.0000
   492 H84      2.2063   6.8292   6.0786   H         1 RES1   0.0000
   493 H85     -2.5017  10.5750  12.4067   H         1 RES1   0.0000
   494 H86      1.8156  10.7408   9.2891   H         1 RES1   0.0000
   495 H87      1.3974   9.0855   9.7866   H         1 RES1   0.0000
   496 H88      2.2063  10.1803  10.9309   H         1 RES1   0.0000
   497 H89      2.5018  10.5749   4.6028   H         1 RES1   0.0000
   498 H90     -1.8156   6.2687   9.2891   H         1 RES1   0.0000
   499 H91     -1.3974   7.9240   9.7866   H         1 RES1   0.0000
   500 H92     -2.2063   6.8292  10.9309   H         1 RES1   0.0000
   501 H93     18.8251  10.7408   9.2891   H         1 RES1   0.0000
   502 H94     18.4069   9.0855   9.7866   H         1 RES1   0.0000
   503 H95     19.2158  10.1803  10.9309   H         1 RES1   0.0000
   504 H96      2.5018   4.6028  10.5749   H         1 RES1   0.0000
   505 H97      2.5018  12.4067   6.4346   H         1 RES1   0.0000
   506 H98     14.5078   6.4345   4.6028   H         1 RES1   0.0000
   507 H99     14.5078  12.4067  10.5750   H         1 RES1   0.0000
   508 H100    -2.5017   4.6028   6.4345   H         1 RES1   0.0000
   509 H101    19.5113   6.4346  12.4067   H         1 RES1   0.0000
   510 H102     2.5018   6.4346  12.4067   H         1 RES1   0.0000
   511 H103    19.5113  10.5749   4.6028   H         1 RES1   0.0000
   512 H104    14.5078   4.6028   6.4345   H         1 RES1   0.0000
   513 H105    -2.5017  12.4067  10.5750   H         1 RES1   0.0000
   514 H106    14.5078  10.5750  12.4067   H         1 RES1   0.0000
   515 H107    12.4067   2.5018   6.4346   H         1 RES1   0.0000
   516 H108     4.6028  14.5078   6.4345   H         1 RES1   0.0000
   517 H109    15.1939   6.2687   9.2891   H         1 RES1   0.0000
   518 H110    15.6121   7.9240   9.7866   H         1 RES1   0.0000
   519 H111    14.8032   6.8292  10.9309   H         1 RES1   0.0000
   520 H112    10.5749   2.5018   4.6028   H         1 RES1   0.0000
   521 H113     6.4346   2.5018  12.4067   H         1 RES1   0.0000
   522 H114     7.7204  18.8251   6.2687   H         1 RES1   0.0000
   523 H115     7.2229  18.4069   7.9240   H         1 RES1   0.0000
   524 H116     6.0786  19.2158   6.8292   H         1 RES1   0.0000
   525 H117    12.4067  14.5078  10.5750   H         1 RES1   0.0000
   526 H118     7.7204   1.8156   6.2687   H         1 RES1   0.0000
   527 H119     7.2229   1.3974   7.9240   H         1 RES1   0.0000
   528 H120     6.0786   2.2063   6.8292   H         1 RES1   0.0000
   529 H121     4.6028  19.5113  10.5749   H         1 RES1   0.0000
   530 H122     4.6028  -2.5017   6.4345   H         1 RES1   0.0000
   531 H123     9.2891  -1.8156   6.2687   H         1 RES1   0.0000
   532 H124     9.7866  -1.3974   7.9240   H         1 RES1   0.0000
   533 H125    10.9309  -2.2063   6.8292   H         1 RES1   0.0000
   534 H126     9.2891  18.8251  10.7408   H         1 RES1   0.0000
   535 H127     9.7866  18.4069   9.0855   H         1 RES1   0.0000
   536 H128    10.9309  19.2158  10.1803   H         1 RES1   0.0000
   537 H129    10.5750  14.5078  12.4067   H         1 RES1   0.0000
   538 H130     7.7204  15.1939  10.7408   H         1 RES1   0.0000
   539 H131     7.2229  15.6121   9.0855   H         1 RES1   0.0000
   540 H132     6.0786  14.8032  10.1803   H         1 RES1   0.0000
   541 H133    12.4067  -2.5017  10.5750   H         1 RES1   0.0000
   542 H134     6.4346  19.5113  12.4067   H         1 RES1   0.0000
   543 H135     7.7204  -1.8156  10.7408   H         1 RES1   0.0000
   544 H136     7.2229  -1.3974   9.0855   H         1 RES1   0.0000
   545 H137     6.0786  -2.2063  10.1803   H         1 RES1   0.0000
   546 H138     6.4345  14.5078   4.6028   H         1 RES1   0.0000
   547 H139     9.2891   1.8156  10.7408   H         1 RES1   0.0000
   548 H140     9.7866   1.3974   9.0855   H         1 RES1   0.0000
   549 H141    10.9309   2.2063  10.1803   H         1 RES1   0.0000
   550 H142    10.5750  -2.5017  12.4067   H         1 RES1   0.0000
   551 H143     4.6028   2.5018  10.5749   H         1 RES1   0.0000
   552 H144     6.4345  -2.5017   4.6028   H         1 RES1   0.0000
   553 H145    19.5113   4.6028  10.5749   H         1 RES1   0.0000
   554 H146     6.4345   4.6028  -2.5017   H         1 RES1   0.0000
   555 H147     6.2687   7.7204   1.8156   H         1 RES1   0.0000
   556 H148     7.9240   7.2229   1.3974   H         1 RES1   0.0000
   557 H149     6.8292   6.0786   2.2063   H         1 RES1   0.0000
   558 H150    10.7408   7.7204  -1.8156   H         1 RES1   0.0000
   559 H151     9.0855   7.2229  -1.3974   H         1 RES1   0.0000
   560 H152    10.1803   6.0786  -2.2063   H         1 RES1   0.0000
   561 H153     4.6028   6.4345  -2.5017   H         1 RES1   0.0000
   562 H154    12.4067   6.4345   2.5017   H         1 RES1   0.0000
   563 H155    12.4067  19.5113   6.4346   H         1 RES1   0.0000
   564 H156    10.5749  19.5113   4.6028   H         1 RES1   0.0000
   565 H157     9.2891  15.1939   6.2687   H         1 RES1   0.0000
   566 H158     9.7866  15.6121   7.9240   H         1 RES1   0.0000
   567 H159    10.9309  14.8032   6.8292   H         1 RES1   0.0000
   568 H160    10.5750   4.6028   2.5017   H         1 RES1   0.0000
   569 H161    16.2252   6.6890  19.2455   H         1 RES1   0.0000
   570 H162    15.7277   7.1074  17.5902   H         1 RES1   0.0000
   571 H163    14.5834   6.2983  18.6850   H         1 RES1   0.0000
   572 H164     3.9021  11.0064  -2.0703   H         1 RES1   0.0000
   573 H165    -3.9021  14.9392   6.0031   H         1 RES1   0.0000
   574 H166    14.9392  11.0064  20.9116   H         1 RES1   0.0000
   575 H167    13.1074   6.0031  -2.0703   H         1 RES1   0.0000
   576 H168     3.9021   6.0031   2.0703   H         1 RES1   0.0000
   577 H169     3.9021  11.0064  14.9392   H         1 RES1   0.0000
   578 H170     3.9021  14.9392  11.0064   H         1 RES1   0.0000
   579 H171     3.9021   6.0031  19.0798   H         1 RES1   0.0000
   580 H172    16.2252  14.7735  10.3205   H         1 RES1   0.0000
   581 H173    14.5834  15.3340  10.7112   H         1 RES1   0.0000
   582 H174    15.7277  16.4288   9.9021   H         1 RES1   0.0000
   583 H175    -2.0703  13.1074   6.0031   H         1 RES1   0.0000
   584 H176    13.1074  14.9392   6.0031   H         1 RES1   0.0000
   585 H177    -2.2360  16.2252  10.3205   H         1 RES1   0.0000
   586 H178    -0.5807  15.7277   9.9021   H         1 RES1   0.0000
   587 H179    -1.6755  14.5834  10.7112   H         1 RES1   0.0000
   588 H180     2.0703   3.9021   6.0031   H         1 RES1   0.0000
   589 H181     0.7843   6.6890  -2.2360   H         1 RES1   0.0000
   590 H182     1.2818   7.1074  -0.5807   H         1 RES1   0.0000
   591 H183     2.4261   6.2983  -1.6755   H         1 RES1   0.0000
   592 H184     2.2360  10.3205   0.7843   H         1 RES1   0.0000
   593 H185     1.6755  10.7112   2.4261   H         1 RES1   0.0000
   594 H186     0.5807   9.9021   1.2818   H         1 RES1   0.0000
   595 H187    19.0798  13.1074  11.0064   H         1 RES1   0.0000
   596 H188     2.0703  11.0064  -3.9021   H         1 RES1   0.0000
   597 H189    13.1074  11.0064   2.0703   H         1 RES1   0.0000
   598 H190    20.9116  14.9392  11.0064   H         1 RES1   0.0000
   599 H191    14.9392  11.0064   3.9021   H         1 RES1   0.0000
   600 H192     2.0703  11.0064  13.1074   H         1 RES1   0.0000
   601 H193     0.7843  14.7735   6.6890   H         1 RES1   0.0000
   602 H194     2.4261  15.3340   6.2983   H         1 RES1   0.0000
   603 H195     1.2818  16.4288   7.1074   H         1 RES1   0.0000
   604 H196    14.9392  13.1074   6.0031   H         1 RES1   0.0000
   605 H197    13.1074  11.0064  19.0798   H         1 RES1   0.0000
   606 H198     0.7843   2.2360  10.3205   H         1 RES1   0.0000
   607 H199     2.4261   1.6755  10.7112   H         1 RES1   0.0000
   608 H200     1.2818   0.5807   9.9021   H         1 RES1   0.0000
   609 H201     3.9021   2.0703   6.0031   H         1 RES1   0.0000
   610 H202    14.9392   6.0031  -3.9021   H         1 RES1   0.0000
   611 H203    13.1074   6.0031  14.9392   H         1 RES1   0.0000
   612 H204     2.0703   6.0031  20.9116   H         1 RES1   0.0000
   613 H205    14.7735  10.3205  16.2252   H         1 RES1   0.0000
   614 H206    15.3340  10.7112  14.5834   H         1 RES1   0.0000
   615 H207    16.4288   9.9021  15.7277   H         1 RES1   0.0000
   616 H208    14.9392   6.0031  13.1074   H         1 RES1   0.0000
   617 H209     0.7843  10.3205  19.2455   H         1 RES1   0.0000
   618 H210     1.2818   9.9021  17.5902   H         1 RES1   0.0000
   619 H211     2.4261  10.7112  18.6850   H         1 RES1   0.0000
   620 H212     2.0703  13.1074  11.0064   H         1 RES1   0.0000
   621 H213     2.2360   6.6890  16.2252   H         1 RES1   0.0000
   622 H214     1.6755   6.2983  14.5834   H         1 RES1   0.0000
   623 H215     0.5807   7.1074  15.7277   H         1 RES1   0.0000
   624 H216    16.2252  10.3205  -2.2360   H         1 RES1   0.0000
   625 H217    15.7277   9.9021  -0.5807   H         1 RES1   0.0000
   626 H218    14.5834  10.7112  -1.6755   H         1 RES1   0.0000
   627 H219     2.0703   6.0031   3.9021   H         1 RES1   0.0000
   628 H220    19.2455  16.2252   6.6890   H         1 RES1   0.0000
   629 H221    17.5902  15.7277   7.1074   H         1 RES1   0.0000
   630 H222    18.6850  14.5834   6.2983   H         1 RES1   0.0000
   631 H223    14.7735   6.6890   0.7843   H         1 RES1   0.0000
   632 H224    15.3340   6.2983   2.4261   H         1 RES1   0.0000
   633 H225    16.4288   7.1074   1.2818   H         1 RES1   0.0000
   634 H226    20.9116  11.0064  14.9392   H         1 RES1   0.0000
   635 H227    -2.2360  10.3205  16.2252   H         1 RES1   0.0000
   636 H228    -1.6755  10.7112  14.5834   H         1 RES1   0.0000
   637 H229    -0.5807   9.9021  15.7277   H         1 RES1   0.0000
   638 H230    -3.9021  11.0064   2.0703   H         1 RES1   0.0000
   639 H231     6.0031  14.9392  -3.9021   H         1 RES1   0.0000
   640 H232    11.0064  13.1074  19.0798   H         1 RES1   0.0000
   641 H233    11.0064   3.9021  -2.0703   H         1 RES1   0.0000
   642 H234    14.9392   3.9021  11.0064   H         1 RES1   0.0000
   643 H235    13.1074   2.0703  11.0064   H         1 RES1   0.0000
   644 H236    16.2252   2.2360   6.6890   H         1 RES1   0.0000
   645 H237    14.5834   1.6755   6.2983   H         1 RES1   0.0000
   646 H238    15.7277   0.5807   7.1074   H         1 RES1   0.0000
   647 H239     6.0031  13.1074  -2.0703   H         1 RES1   0.0000
   648 H240    10.3205  16.2252  -2.2360   H         1 RES1   0.0000
   649 H241    10.7112  14.5834  -1.6755   H         1 RES1   0.0000
   650 H242     9.9021  15.7277  -0.5807   H         1 RES1   0.0000
   651 H243    11.0064   2.0703  -3.9021   H         1 RES1   0.0000
   652 H244    -2.0703   6.0031  13.1074   H         1 RES1   0.0000
   653 H245    19.0798   3.9021   6.0031   H         1 RES1   0.0000
   654 H246    -2.2360   6.6890   0.7843   H         1 RES1   0.0000
   655 H247    -1.6755   6.2983   2.4261   H         1 RES1   0.0000
   656 H248    -0.5807   7.1074   1.2818   H         1 RES1   0.0000
   657 H249    20.9116   6.0031   2.0703   H         1 RES1   0.0000
   658 H250     6.0031   3.9021  19.0798   H         1 RES1   0.0000
   659 H251    10.3205   0.7843  19.2455   H         1 RES1   0.0000
   660 H252    10.7112   2.4261  18.6850   H         1 RES1   0.0000
   661 H253     9.9021   1.2818  17.5902   H         1 RES1   0.0000
   662 H254     6.0031   2.0703  20.9116   H         1 RES1   0.0000
   663 H255    -2.0703   3.9021  11.0064   H         1 RES1   0.0000
   664 H256    19.2455   0.7843  10.3205   H         1 RES1   0.0000
   665 H257    17.5902   1.2818   9.9021   H         1 RES1   0.0000
   666 H258    18.6850   2.4261  10.7112   H         1 RES1   0.0000
   667 H259     6.6890   0.7843  -2.2360   H         1 RES1   0.0000
   668 H260     6.2983   2.4261  -1.6755   H         1 RES1   0.0000
   669 H261     7.1074   1.2818  -0.5807   H         1 RES1   0.0000
   670 H262    -3.9021   6.0031  14.9392   H         1 RES1   0.0000
   671 H263    -3.9021   2.0703  11.0064   H         1 RES1   0.0000
   672 H264    19.0798  11.0064  13.1074   H         1 RES1   0.0000
   673 H265    19.0798   6.0031   3.9021   H         1 RES1   0.0000
   674 H266    20.9116   2.0703   6.0031   H         1 RES1   0.0000
   675 H267    19.2455   6.6890  16.2252   H         1 RES1   0.0000
   676 H268    18.6850   6.2983  14.5834   H         1 RES1   0.0000
   677 H269    17.5902   7.1074  15.7277   H         1 RES1   0.0000
   678 H270    -2.2360   0.7843   6.6890   H         1 RES1   0.0000
   679 H271    -0.5807   1.2818   7.1074   H         1 RES1   0.0000
   680 H272    -1.6755   2.4261   6.2983   H         1 RES1   0.0000
   681 H273    -2.0703  11.0064   3.9021   H         1 RES1   0.0000
   682 H274    19.2455  10.3205   0.7843   H         1 RES1   0.0000
   683 H275    18.6850  10.7112   2.4261   H         1 RES1   0.0000
   684 H276    17.5902   9.9021   1.2818   H         1 RES1   0.0000
   685 H277     6.6890  16.2252  19.2455   H         1 RES1   0.0000
   686 H278     6.2983  14.5834  18.6850   H         1 RES1   0.0000
   687 H279     7.1074  15.7277  17.5902   H         1 RES1   0.0000
   688 H280    11.0064  14.9392  20.9116   H         1 RES1   0.0000
   689 H281    16.2252  -2.2360  10.3205   H         1 RES1   0.0000
   690 H282    14.5834  -1.6755  10.7112   H         1 RES1   0.0000
   691 H283    15.7277  -0.5807   9.9021   H         1 RES1   0.0000
   692 H284     0.7843  -2.2360   6.6890   H         1 RES1   0.0000
   693 H285     2.4261  -1.6755   6.2983   H         1 RES1   0.0000
   694 H286     1.2818  -0.5807   7.1074   H         1 RES1   0.0000
   695 H287     2.0703  -3.9021  11.0064   H         1 RES1   0.0000
   696 H288    14.9392  -3.9021   6.0031   H         1 RES1   0.0000
   697 H289     2.0703  20.9116   6.0031   H         1 RES1   0.0000
   698 H290     3.9021  -2.0703  11.0064   H         1 RES1   0.0000
   699 H291    14.9392  20.9116  11.0064   H         1 RES1   0.0000
   700 H292     3.9021  19.0798   6.0031   H         1 RES1   0.0000
   701 H293    13.1074  -2.0703   6.0031   H         1 RES1   0.0000
   702 H294    16.2252  19.2455   6.6890   H         1 RES1   0.0000
   703 H295    14.5834  18.6850   6.2983   H         1 RES1   0.0000
   704 H296    15.7277  17.5902   7.1074   H         1 RES1   0.0000
   705 H297     0.7843  19.2455  10.3205   H         1 RES1   0.0000
   706 H298     2.4261  18.6850  10.7112   H         1 RES1   0.0000
   707 H299     1.2818  17.5902   9.9021   H         1 RES1   0.0000
   708 H300    13.1074  19.0798  11.0064   H         1 RES1   0.0000
@<TRIPOS>BOND
     1     1     2    1
     2     1     8    1
     3     1    16    1
     4     1    17    1
     5     2     3   ar
     6     2     4   ar
     7     3     5    1
     8     3     6   ar
     9     4     7   ar
    10     6     7   ar
    11     6    15    1
    12     8     9   ar
    13     8    10   ar
    14     9    11    1
    15     9    12   ar
    16    10    13   ar
    17    12    13   ar
    18    12    14    1
    19    18    19    1
    20    18    25    1
    21    18    33    1
    22    18    34    1
    23    19    20   ar
    24    19    21   ar
    25    20    22    1
    26    20    23   ar
    27    21    24   ar
    28    23    24   ar
    29    23    32    1
    30    25    26   ar
    31    25    27   ar
    32    26    28    1
    33    26    29   ar
    34    27    30   ar
    35    29    30   ar
    36    29    31    1
    37    35    36    1
    38    35    42    1
    39    35    48    1
    40    35    49    1
    41    36    37   ar
    42    36    38   ar
    43    37    39    1
    44    37    40   ar
    45    38    41   ar
    46    40    41   ar
    47    40    15    1
    48    42    43   ar
    49    42    44   ar
    50    43    45    1
    51    43    46   ar
    52    44    47   ar
    53    46    47   ar
    54    46    14    1
    55    50    51    1
    56    50    57    1
    57    50    63    1
    58    50    64    1
    59    51    52   ar
    60    51    53   ar
    61    52    54    1
    62    52    55   ar
    63    53    56   ar
    64    55    56   ar
    65    55    32    1
    66    57    58   ar
    67    57    59   ar
    68    58    60    1
    69    58    61   ar
    70    59    62   ar
    71    61    62   ar
    72    61    31    1
    73    65    66    1
    74    65    72    1
    75    65    80    1
    76    65    81    1
    77    66    67   ar
    78    66    68   ar
    79    67    69    1
    80    67    70   ar
    81    68    71   ar
    82    70    71   ar
    83    70    79    1
    84    72    73   ar
    85    72    74   ar
    86    73    75    1
    87    73    76   ar
    88    74    77   ar
    89    76    77   ar
    90    76    78    1
    91    82    83    1
    92    82    89    1
    93    82    97    1
    94    82    98    1
    95    83    84   ar
    96    83    85   ar
    97    84    86    1
    98    84    87   ar
    99    85    88   ar
   100    87    88   ar
   101    87    96    1
   102    89    90   ar
   103    89    91   ar
   104    90    92    1
   105    90    93   ar
   106    91    94   ar
   107    93    94   ar
   108    93    95    1
   109    99   100    1
   110    99   106    1
   111    99   112    1
   112    99   113    1
   113   100   101   ar
   114   100   102   ar
   115   101   103    1
   116   101   104   ar
   117   102   105   ar
   118   104   105   ar
   119   104    79    1
   120   106   107   ar
   121   106   108   ar
   122   107   109    1
   123   107   110   ar
   124   108   111   ar
   125   110   111   ar
   126   110    78    1
   127   114   115    1
   128   114   121    1
   129   114   127    1
   130   114   128    1
   131   115   116   ar
   132   115   117   ar
   133   116   118    1
   134   116   119   ar
   135   117   120   ar
   136   119   120   ar
   137   119    96    1
   138   121   122   ar
   139   121   123   ar
   140   122   124    1
   141   122   125   ar
   142   123   126   ar
   143   125   126   ar
   144   125    95    1
   145   129   130    1
   146   129   136    1
   147   129   144    1
   148   129   145    1
   149   130   131   ar
   150   130   132   ar
   151   131   133    1
   152   131   134   ar
   153   132   135   ar
   154   134   135   ar
   155   134   143    1
   156   136   137   ar
   157   136   138   ar
   158   137   139    1
   159   137   140   ar
   160   138   141   ar
   161   140   141   ar
   162   140   142    1
   163   146   147    1
   164   146   153    1
   165   146   161    1
   166   146   162    1
   167   147   148   ar
   168   147   149   ar
   169   148   150    1
   170   148   151   ar
   171   149   152   ar
   172   151   152   ar
   173   151   160    1
   174   153   154   ar
   175   153   155   ar
   176   154   156    1
   177   154   157   ar
   178   155   158   ar
   179   157   158   ar
   180   157   159    1
   181   163   164    1
   182   163   170    1
   183   163   176    1
   184   163   177    1
   185   164   165   ar
   186   164   166   ar
   187   165   167    1
   188   165   168   ar
   189   166   169   ar
   190   168   169   ar
   191   168   143    1
   192   170   171   ar
   193   170   172   ar
   194   171   173    1
   195   171   174   ar
   196   172   175   ar
   197   174   175   ar
   198   174   142    1
   199   178   179    1
   200   178   185    1
   201   178   191    1
   202   178   192    1
   203   179   180   ar
   204   179   181   ar
   205   180   182    1
   206   180   183   ar
   207   181   184   ar
   208   183   184   ar
   209   183   160    1
   210   185   186   ar
   211   185   187   ar
   212   186   188    1
   213   186   189   ar
   214   187   190   ar
   215   189   190   ar
   216   189   159    1
   217    78   193    1
   218    78   194    1
   219    95   195    1
   220    95   196    1
   221    79   197    1
   222    79   198    1
   223    96   199    1
   224    96   200    1
   225    14   201    1
   226    14   202    1
   227    31   203    1
   228    31   204    1
   229    15   205    1
   230    15   206    1
   231    32   207    1
   232    32   208    1
   233   142   209    1
   234   142   210    1
   235   159   211    1
   236   159   212    1
   237   143   213    1
   238   143   214    1
   239   160   215    1
   240   160   216    1
   241   198   217   ar
   242   198   218   ar
   243   217   219    1
   244   217   162   ar
   245   218   220   ar
   246   162   220   ar
   247   197   221   ar
   248   197   222   ar
   249   221   223    1
   250   221   224   ar
   251   222   225   ar
   252   224   225   ar
   253   224   226    1
   254   200   227   ar
   255   200   228   ar
   256   227   229    1
   257   227   230   ar
   258   228   231   ar
   259   230   231   ar
   260   230   236    1
   261   199   232   ar
   262   199   233   ar
   263   232   234    1
   264   232   191   ar
   265   233   235   ar
   266   191   235   ar
   267   193   237   ar
   268   193   238   ar
   269   237   239    1
   270   237   144   ar
   271   238   240   ar
   272   144   240   ar
   273   194   241   ar
   274   194   242   ar
   275   241   243    1
   276   241   244   ar
   277   242   245   ar
   278   244   245   ar
   279   244   246    1
   280   195   247   ar
   281   195   248   ar
   282   247   249    1
   283   247   250   ar
   284   248   251   ar
   285   250   251   ar
   286   250   256    1
   287   196   252   ar
   288   196   253   ar
   289   252   254    1
   290   252   177   ar
   291   253   255   ar
   292   177   255   ar
   293   214   257   ar
   294   214   258   ar
   295   257   259    1
   296   257    34   ar
   297   258   260   ar
   298    34   260   ar
   299   213   261   ar
   300   213   262   ar
   301   261   263    1
   302   261   264   ar
   303   262   265   ar
   304   264   265   ar
   305   264   266    1
   306   216   267   ar
   307   216   268   ar
   308   267   269    1
   309   267   270   ar
   310   268   271   ar
   311   270   271   ar
   312   270   276    1
   313   215   272   ar
   314   215   273   ar
   315   272   274    1
   316   272    63   ar
   317   273   275   ar
   318    63   275   ar
   319   209   277   ar
   320   209   278   ar
   321   277   279    1
   322   277    16   ar
   323   278   280   ar
   324    16   280   ar
   325   210   281   ar
   326   210   282   ar
   327   281   283    1
   328   281   284   ar
   329   282   285   ar
   330   284   285   ar
   331   284   286    1
   332   211   287   ar
   333   211   288   ar
   334   287   289    1
   335   287   290   ar
   336   288   291   ar
   337   290   291   ar
   338   290   296    1
   339   212   292   ar
   340   212   293   ar
   341   292   294    1
   342   292    49   ar
   343   293   295   ar
   344    49   295   ar
   345   206   297   ar
   346   206   298   ar
   347   297   299    1
   348   297    98   ar
   349   298   300   ar
   350    98   300   ar
   351   205   301   ar
   352   205   302   ar
   353   301   303    1
   354   301   304   ar
   355   302   305   ar
   356   304   305   ar
   357   304   306    1
   358   208   307   ar
   359   208   308   ar
   360   307   309    1
   361   307   310   ar
   362   308   311   ar
   363   310   311   ar
   364   310   316    1
   365   207   312   ar
   366   207   313   ar
   367   312   314    1
   368   312   127   ar
   369   313   315   ar
   370   127   315   ar
   371   201   317   ar
   372   201   318   ar
   373   317   319    1
   374   317    80   ar
   375   318   320   ar
   376    80   320   ar
   377   202   321   ar
   378   202   322   ar
   379   321   323    1
   380   321   324   ar
   381   322   325   ar
   382   324   325   ar
   383   324   326    1
   384   203   327   ar
   385   203   328   ar
   386   327   329    1
   387   327   330   ar
   388   328   331   ar
   389   330   331   ar
   390   330   336    1
   391   204   332   ar
   392   204   333   ar
   393   332   334    1
   394   332   113   ar
   395   333   335   ar
   396   113   335   ar
   397    48   337   ar
   398    48   338   ar
   399   337   339    1
   400   337   340   ar
   401   338   341   ar
   402   340   341   ar
   403   340   342    1
   404    64   343   ar
   405    64   344   ar
   406   343   345    1
   407   343   346   ar
   408   344   347   ar
   409   346   347   ar
   410   346   348    1
   411    17   349   ar
   412    17   350   ar
   413   349   351    1
   414   349   352   ar
   415   350   353   ar
   416   352   353   ar
   417   352   354    1
   418    33   355   ar
   419    33   356   ar
   420   355   357    1
   421   355   358   ar
   422   356   359   ar
   423   358   359   ar
   424   358   360    1
   425   176   361   ar
   426   176   362   ar
   427   361   363    1
   428   361   364   ar
   429   362   365   ar
   430   364   365   ar
   431   364   366    1
   432   192   367   ar
   433   192   368   ar
   434   367   369    1
   435   367   370   ar
   436   368   371   ar
   437   370   371   ar
   438   370   372    1
   439   145   373   ar
   440   145   374   ar
   441   373   375    1
   442   373   376   ar
   443   374   377   ar
   444   376   377   ar
   445   376   378    1
   446   161   379   ar
   447   161   380   ar
   448   379   381    1
   449   379   382   ar
   450   380   383   ar
   451   382   383   ar
   452   382   384    1
   453   112   385   ar
   454   112   386   ar
   455   385   387    1
   456   385   388   ar
   457   386   389   ar
   458   388   389   ar
   459   388   390    1
   460   128   391   ar
   461   128   392   ar
   462   391   393    1
   463   391   394   ar
   464   392   395   ar
   465   394   395   ar
   466   394   396    1
   467    81   397   ar
   468    81   398   ar
   469   397   399    1
   470   397   400   ar
   471   398   401   ar
   472   400   401   ar
   473   400   402    1
   474    97   403   ar
   475    97   404   ar
   476   403   405    1
   477   403   406   ar
   478   404   407   ar
   479   406   407   ar
   480   406   408    1
   481   254   409    1
   482   254   410    1
   483   254   411    1
   484   255   412    1
   485   251   413    1
   486   253   414    1
   487   229   415    1
   488   229   416    1
   489   229   417    1
   490   235   418    1
   491   239   419    1
   492   239   420    1
   493   239   421    1
   494   228   422    1
   495   240   423    1
   496   242   424    1
   497   245   425    1
   498   248   426    1
   499   243   427    1
   500   243   428    1
   501   243   429    1
   502   249   430    1
   503   249   431    1
   504   249   432    1
   505   238   433    1
   506   225   434    1
   507   231   435    1
   508   233   436    1
   509   234   437    1
   510   234   438    1
   511   234   439    1
   512   167   440    1
   513   167   441    1
   514   167   442    1
   515   158   443    1
   516   182   444    1
   517   182   445    1
   518   182   446    1
   519   173   447    1
   520   173   448    1
   521   173   449    1
   522   150   450    1
   523   150   451    1
   524   150   452    1
   525   156   453    1
   526   156   454    1
   527   156   455    1
   528   169   456    1
   529   175   457    1
   530   181   458    1
   531   166   459    1
   532   187   460    1
   533   152   461    1
   534   172   462    1
   535   188   463    1
   536   188   464    1
   537   188   465    1
   538   190   466    1
   539   184   467    1
   540   155   468    1
   541   149   469    1
   542   219   470    1
   543   219   471    1
   544   219   472    1
   545   223   473    1
   546   223   474    1
   547   223   475    1
   548   218   476    1
   549   220   477    1
   550   222   478    1
   551    24   479    1
   552    22   480    1
   553    22   481    1
   554    22   482    1
   555    28   483    1
   556    28   484    1
   557    28   485    1
   558     5   486    1
   559     5   487    1
   560     5   488    1
   561    10   489    1
   562    11   490    1
   563    11   491    1
   564    11   492    1
   565    38   493    1
   566    39   494    1
   567    39   495    1
   568    39   496    1
   569     4   497    1
   570    45   498    1
   571    45   499    1
   572    45   500    1
   573    54   501    1
   574    54   502    1
   575    54   503    1
   576    47   504    1
   577     7   505    1
   578    27   506    1
   579    56   507    1
   580    13   508    1
   581    59   509    1
   582    44   510    1
   583    21   511    1
   584    30   512    1
   585    41   513    1
   586    53   514    1
   587   108   515    1
   588    91   516    1
   589    60   517    1
   590    60   518    1
   591    60   519    1
   592   111   520    1
   593    71   521    1
   594    92   522    1
   595    92   523    1
   596    92   524    1
   597   117   525    1
   598    75   526    1
   599    75   527    1
   600    75   528    1
   601    85   529    1
   602    74   530    1
   603   109   531    1
   604   109   532    1
   605   109   533    1
   606   118   534    1
   607   118   535    1
   608   118   536    1
   609   120   537    1
   610    86   538    1
   611    86   539    1
   612    86   540    1
   613   102   541    1
   614    88   542    1
   615    69   543    1
   616    69   544    1
   617    69   545    1
   618    94   546    1
   619   103   547    1
   620   103   548    1
   621   103   549    1
   622   105   550    1
   623    68   551    1
   624    77   552    1
   625    62   553    1
   626   138   554    1
   627   139   555    1
   628   139   556    1
   629   139   557    1
   630   133   558    1
   631   133   559    1
   632   133   560    1
   633   141   561    1
   634   135   562    1
   635   123   563    1
   636   126   564    1
   637   124   565    1
   638   124   566    1
   639   124   567    1
   640   132   568    1
   641   269   569    1
   642   269   570    1
   643   269   571    1
   644   282   572    1
   645   305   573    1
   646   271   574    1
   647   262   575    1
   648   278   576    1
   649   293   577    1
   650   300   578    1
   651   288   579    1
   652   314   580    1
   653   314   581    1
   654   314   582    1
   655   302   583    1
   656   315   584    1
   657   303   585    1
   658   303   586    1
   659   303   587    1
   660   318   588    1
   661   283   589    1
   662   283   590    1
   663   283   591    1
   664   279   592    1
   665   279   593    1
   666   279   594    1
   667   308   595    1
   668   285   596    1
   669   258   597    1
   670   311   598    1
   671   260   599    1
   672   295   600    1
   673   299   601    1
   674   299   602    1
   675   299   603    1
   676   313   604    1
   677   268   605    1
   678   319   606    1
   679   319   607    1
   680   319   608    1
   681   320   609    1
   682   265   610    1
   683   273   611    1
   684   291   612    1
   685   274   613    1
   686   274   614    1
   687   274   615    1
   688   275   616    1
   689   289   617    1
   690   289   618    1
   691   289   619    1
   692   298   620    1
   693   294   621    1
   694   294   622    1
   695   294   623    1
   696   263   624    1
   697   263   625    1
   698   263   626    1
   699   280   627    1
   700   309   628    1
   701   309   629    1
   702   309   630    1
   703   259   631    1
   704   259   632    1
   705   259   633    1
   706   347   634    1
   707   339   635    1
   708   339   636    1
   709   339   637    1
   710   353   638    1
   711   365   639    1
   712   368   640    1
   713   374   641    1
   714   333   642    1
   715   335   643    1
   716   334   644    1
   717   334   645    1
   718   334   646    1
   719   362   647    1
   720   363   648    1
   721   363   649    1
   722   363   650    1
   723   377   651    1
   724   338   652    1
   725   328   653    1
   726   351   654    1
   727   351   655    1
   728   351   656    1
   729   359   657    1
   730   380   658    1
   731   381   659    1
   732   381   660    1
   733   381   661    1
   734   383   662    1
   735   322   663    1
   736   329   664    1
   737   329   665    1
   738   329   666    1
   739   375   667    1
   740   375   668    1
   741   375   669    1
   742   341   670    1
   743   325   671    1
   744   344   672    1
   745   356   673    1
   746   331   674    1
   747   345   675    1
   748   345   676    1
   749   345   677    1
   750   323   678    1
   751   323   679    1
   752   323   680    1
   753   350   681    1
   754   357   682    1
   755   357   683    1
   756   357   684    1
   757   369   685    1
   758   369   686    1
   759   369   687    1
   760   371   688    1
   761   387   689    1
   762   387   690    1
   763   387   691    1
   764   399   692    1
   765   399   693    1
   766   399   694    1
   767   401   695    1
   768   389   696    1
   769   407   697    1
   770   398   698    1
   771   395   699    1
   772   404   700    1
   773   386   701    1
   774   393   702    1
   775   393   703    1
   776   393   704    1
   777   405   705    1
   778   405   706    1
   779   405   707    1
   780   392   708    1
@<TRIPOS>SUBSTRUCTURE
     1 RES1        1 GROUP             0 ****  ****    0  
@<TRIPOS>SET
CCDC_LIGAND STATIC ATOMS
708 1 2 3 4 5 6 7 8 9 \
10 11 12 13 14 15 16 17 18 19 \
20 21 22 23 24 25 26 27 28 29 \
30 31 32 33 34 35 36 37 38 39 \
40 41 42 43 44 45 46 47 48 49 \
50 51 52 53 54 55 56 57 58 59 \
60 61 62 63 64 65 66 67 68 69 \
70 71 72 73 74 75 76 77 78 79 \
80 81 82 83 84 85 86 87 88 89 \
90 91 92 93 94 95 96 97 98 99 \
100 101 102 103 104 105 106 107 108 109 \
110 111 112 113 114 115 116 117 118 119 \
120 121 122 123 124 125 126 127 128 129 \
130 131 132 133 134 135 136 137 138 139 \
140 141 142 143 144 145 146 147 148 149 \
150 151 152 153 154 155 156 157 158 159 \
160 161 162 163 164 165 166 167 168 169 \
170 171 172 173 174 175 176 177 178 179 \
180 181 182 183 184 185 186 187 188 189 \
190 191 192 193 194 195 196 197 198 199 \
200 201 202 203 204 205 206 207 208 209 \
210 211 212 213 214 215 216 217 218 219 \
220 221 222 223 224 225 226 227 228 229 \
230 231 232 233 234 235 236 237 238 239 \
240 241 242 243 244 245 246 247 248 249 \
250 251 252 253 254 255 256 257 258 259 \
260 261 262 263 264 265 266 267 268 269 \
270 271 272 273 274 275 276 277 278 279 \
280 281 282 283 284 285 286 287 288 289 \
290 291 292 293 294 295 296 297 298 299 \
300 301 302 303 304 305 306 307 308 309 \
310 311 312 313 314 315 316 317 318 319 \
320 321 322 323 324 325 326 327 328 329 \
330 331 332 333 334 335 336 337 338 339 \
340 341 342 343 344 345 346 347 348 349 \
350 351 352 353 354 355 356 357 358 359 \
360 361 362 363 364 365 366 367 368 369 \
370 371 372 373 374 375 376 377 378 379 \
380 381 382 383 384 385 386 387 388 389 \
390 391 392 393 394 395 396 397 398 399 \
400 401 402 403 404 405 406 407 408 409 \
410 411 412 413 414 415 416 417 418 419 \
420 421 422 423 424 425 426 427 428 429 \
430 431 432 433 434 435 436 437 438 439 \
440 441 442 443 444 445 446 447 448 449 \
450 451 452 453 454 455 456 457 458 459 \
460 461 462 463 464 465 466 467 468 469 \
470 471 472 473 474 475 476 477 478 479 \
480 481 482 483 484 485 486 487 488 489 \
490 491 492 493 494 495 496 497 498 499 \
500 501 502 503 504 505 506 507 508 509 \
510 511 512 513 514 515 516 517 518 519 \
520 521 522 523 524 525 526 527 528 529 \
530 531 532 533 534 535 536 537 538 539 \
540 541 542 543 544 545 546 547 548 549 \
550 551 552 553 554 555 556 557 558 559 \
560 561 562 563 564 565 566 567 568 569 \
570 571 572 573 574 575 576 577 578 579 \
580 581 582 583 584 585 586 587 588 589 \
590 591 592 593 594 595 596 597 598 599 \
600 601 602 603 604 605 606 607 608 609 \
610 611 612 613 614 615 616 617 618 619 \
620 621 622 623 624 625 626 627 628 629 \
630 631 632 633 634 635 636 637 638 639 \
640 641 642 643 644 645 646 647 648 649 \
650 651 652 653 654 655 656 657 658 659 \
660 661 662 663 664 665 666 667 668 669 \
670 671 672 673 674 675 676 677 678 679 \
680 681 682 683 684 685 686 687 688 689 \
690 691 692 693 694 695 696 697 698 699 \
700 701 702 703 704 705 706 707 708 
